PUGNAc
  SciTegic07212313583D

 44 45  0  0  0  0            999 V2000
   -4.6929  -38.4631    6.5334 C   0  0  1  0  0  0
   -3.3355  -38.4567    7.2051 C   0  0  1  0  0  0
   -2.6303  -37.1521    6.7553 C   0  0  2  0  0  0
   -2.5320  -37.0345    5.3570 O   0  0
   -3.4813  -37.5512    4.5138 C   0  0
   -4.4674  -38.5851    5.0177 C   0  0  2  0  0  0
   -3.4695  -37.2162    3.2895 N   0  0
   -2.5779  -36.3515    2.8403 O   0  0
   -2.7538  -36.1856    1.4698 C   0  0
   -1.8924  -35.3045    0.7642 N   0  0
   -1.9552  -35.0527   -0.6351 C   0  0
   -1.0696  -34.2159   -1.1737 C   0  0
   -1.0976  -33.9280   -2.6108 C   0  0
   -2.0124  -34.5035   -3.3884 C   0  0
   -2.9900  -35.4240   -2.8068 C   0  0
   -2.9648  -35.6865   -1.5006 C   0  0
   -3.6498  -36.8195    0.8992 O   0  0
   -5.7351  -38.5488    4.3116 N   0  0
   -3.4755  -38.4204    8.6270 O   0  0
   -5.4818  -39.5754    6.9602 O   0  0
   -1.2348  -37.0554    7.3894 C   0  0
   -5.8606  -38.8502    3.0185 C   0  0
   -4.8750  -39.1729    2.3457 O   0  0
   -7.2141  -38.7858    2.3745 C   0  0
   -0.6305  -35.8169    7.0110 O   0  0
   -5.2174  -37.5333    6.7540 H   0  0
   -2.7554  -39.3281    6.9012 H   0  0
   -3.2208  -36.3114    7.1197 H   0  0
   -4.0263  -39.5652    4.8362 H   0  0
   -1.1401  -34.7918    1.3264 H   0  0
   -0.3189  -33.7420   -0.5413 H   0  0
   -0.3689  -33.2422   -3.0431 H   0  0
   -2.0332  -34.2892   -4.4570 H   0  0
   -3.7394  -35.8955   -3.4425 H   0  0
   -3.6943  -36.3730   -1.0708 H   0  0
   -6.6122  -38.2662    4.8554 H   0  0
   -3.9958  -37.5520    8.9059 H   0  0
   -4.9870  -40.4694    6.7183 H   0  0
   -1.3239  -37.1006    8.4748 H   0  0
   -0.6179  -37.8834    7.0401 H   0  0
   -7.1304  -39.0617    1.3234 H   0  0
   -7.6067  -37.7720    2.4533 H   0  0
   -7.8900  -39.4769    2.8783 H   0  0
   -0.5456  -35.7733    5.9654 H   0  0
  1  2  1  0
  2  3  1  0
  3  4  1  0
  4  5  1  0
  5  6  1  0
  6  1  1  0
  5  7  2  0
  7  8  1  0
  8  9  1  0
  9 10  1  0
 10 11  1  0
 11 12  2  0
 12 13  1  0
 13 14  2  0
 14 15  1  0
 15 16  2  0
 16 11  1  0
  9 17  2  0
  6 18  1  0
  2 19  1  0
  1 20  1  0
  3 21  1  0
 18 22  1  0
 22 23  2  0
 22 24  1  0
 21 25  1  0
  1 26  1  0
  2 27  1  0
  3 28  1  0
  6 29  1  0
 10 30  1  0
 12 31  1  0
 13 32  1  0
 14 33  1  0
 15 34  1  0
 16 35  1  0
 18 36  1  0
 19 37  1  0
 20 38  1  0
 21 39  1  0
 21 40  1  0
 24 41  1  0
 24 42  1  0
 24 43  1  0
 25 44  1  0
M  END
> <Name>
PUGNAc

> <IC50>
1.2µM

> <Clean Energy>
20.9534435272217

> <Chemical Formula>
C15H19N3O7

> <Forcefield>
MMFF

> <ForcefieldBase>
MMFF

> <Reference>
Liu et al., 2012

> <ForcefieldFFML>
<?xml version="1.0" encoding="UTF-8"?>
<!DOCTYPE ffml SYSTEM "Ffml.dtd">
<ffml version="1.0">
<forcefield name="PUGNAc-MMFF" derivedFrom="MMFF" base="MMFF">
<atomTypes>
<atomType
 name="C100"
 element="C"
 mass="12.011"
 annotation=""/>
<atomType
 name="O101"
 element="O"
 mass="16"
 annotation=""/>
<atomType
 name="N102"
 element="N"
 mass="14.007"
 annotation=""/>
<atomType
 name="H103"
 element="H"
 mass="1.008"
 annotation=""/>
</atomTypes>
<parameters>
</parameters>
</forcefield>
</ffml>

$$$$
DNJNAc
  DSViewer          3D                             0

 30 30  0  0  0  0  0  0  0  0999 V2000
   -4.4291  -37.6322    3.2928 C   0  0  1  0  0  0
   -3.1637  -37.4412    4.0305 N   0  0
   -2.5204  -36.1745    3.6291 C   0  0
   -2.1776  -36.2114    2.1218 C   0  0  1  0  0  0
   -3.4811  -36.4046    1.3356 C   0  0  2  0  0  0
   -4.1453  -37.7116    1.7810 C   0  0  2  0  0  0
   -5.3717  -37.8928    1.0696 O   0  0
   -1.5628  -34.9688    1.7162 N   0  0
   -3.2011  -36.4562   -0.0643 O   0  0
   -5.0949  -38.9360    3.7566 C   0  0
   -5.3552  -38.8574    5.1597 O   0  0
   -0.3885  -34.5604    2.2069 C   0  0
    0.1889  -33.2559    1.7397 C   0  0
    0.2277  -35.2379    3.0361 O   0  0
   -5.0957  -36.7934    3.4931 H   0  0
   -2.5037  -38.2555    3.8150 H   0  0
   -3.2012  -35.3461    3.8244 H   0  0
   -1.6048  -36.0364    4.2043 H   0  0
   -1.4996  -37.0404    1.9191 H   0  0
   -4.1527  -35.5705    1.5391 H   0  0
   -3.4775  -38.5488    1.5778 H   0  0
   -6.0158  -37.0882    1.2708 H   0  0
   -2.0647  -34.3542    0.9984 H   0  0
   -2.7459  -35.5588   -0.3640 H   0  0
   -6.0326  -39.0776    3.2193 H   0  0
   -4.4301  -39.7762    3.5558 H   0  0
   -4.4516  -38.7201    5.6766 H   0  0
    1.1422  -33.0806    2.2383 H   0  0
   -0.5003  -32.4462    1.9797 H   0  0
    0.3447  -33.2923    0.6615 H   0  0
  1  2  1  0  0  0
  2  3  1  0  0  0
  3  4  1  0  0  0
  4  5  1  0  0  0
  5  6  1  0  0  0
  6  1  1  0  0  0
  6  7  1  0  0  0
  4  8  1  0  0  0
  5  9  1  0  0  0
  1 10  1  0  0  0
 10 11  1  0  0  0
  8 12  1  0  0  0
 12 13  1  0  0  0
 12 14  2  0  0  0
  1 15  1  0  0  0
  2 16  1  0  0  0
  3 17  1  0  0  0
  3 18  1  0  0  0
  4 19  1  0  0  0
  5 20  1  0  0  0
  6 21  1  0  0  0
  7 22  1  0  0  0
  8 23  1  0  0  0
  9 24  1  0  0  0
 10 25  1  0  0  0
 10 26  1  0  0  0
 11 27  1  0  0  0
 13 28  1  0  0  0
 13 29  1  0  0  0
 13 30  1  0  0  0
M  END
> <IC50>
7.0µM

> <Clean Energy>
1.20389

> <Forcefield>
MMFF

> <Chemical Formula>
C8H16N2O4

> <ForcefieldBase>
MMFF

> <ForcefieldFFML>
<?xml version="1.0" encoding="UTF-8"?>
<!DOCTYPE ffml SYSTEM "Ffml.dtd">
<ffml version="1.0">
<forcefield name="DNJNAc-MMFF" derivedFrom="MMFF" base="MMFF">
<atomTypes>
<atomType
 name="C100"
 element="C"
 mass="12.011"
 annotation=""/>
<atomType
 name="N101"
 element="N"
 mass="14.007"
 annotation=""/>
<atomType
 name="O102"
 element="O"
 mass="16"
 annotation=""/>
<atomType
 name="H103"
 element="H"
 mass="1.008"
 annotation=""/>
</atomTypes>
<parameters>
</parameters>
</forcefield>
</ffml>

$$$$
6AcCAS
  DSViewer          3D                             0

 34 35  0  0  0  0  0  0  0  0999 V2000
   -5.2149  -38.3669   -0.2243 C   0  0
   -5.4708  -38.2461    1.2774 C   0  0  1  0  0  0
   -4.0987  -37.8126    1.6665 C   0  0  1  0  0  0
   -3.9627  -36.6264    0.8495 N   0  0
   -4.4102  -37.0490   -0.5165 C   0  0
   -3.8873  -37.4923    3.1393 C   0  0  2  0  0  0
   -2.4418  -36.9845    3.2784 C   0  0  1  0  0  0
   -2.2639  -35.7051    2.3808 C   0  0  2  0  0  0
   -2.6010  -36.0778    0.9082 C   0  0
   -6.3816  -37.1843    1.5597 O   0  0
   -2.1904  -36.6916    4.6521 O   0  0
   -4.0777  -38.6671    3.9270 O   0  0
   -0.8934  -35.1946    2.3954 N   0  0
   -0.2476  -34.7402    3.4757 C   0  0
    1.1620  -34.2445    3.3235 C   0  0
   -0.7805  -34.7197    4.5878 O   0  0
   -4.6241  -39.2530   -0.4566 H   0  0
   -6.1489  -38.3949   -0.7855 H   0  0
   -5.7640  -39.1906    1.7358 H   0  0
   -3.3741  -38.5617    1.3474 H   0  0
   -5.0483  -36.2920   -0.9726 H   0  0
   -3.5572  -37.2453   -1.1661 H   0  0
   -4.5853  -36.7168    3.4546 H   0  0
   -1.7530  -37.7597    2.9427 H   0  0
   -2.9448  -34.9253    2.7223 H   0  0
   -2.5395  -35.1867    0.2834 H   0  0
   -1.8916  -36.8235    0.5493 H   0  0
   -5.9809  -36.2775    1.2137 H   0  0
   -2.8608  -35.9536    4.9815 H   0  0
   -5.0544  -39.0272    3.7890 H   0  0
   -0.3637  -35.1834    1.4658 H   0  0
    1.5376  -33.9131    4.2916 H   0  0
    1.1806  -33.4102    2.6223 H   0  0
    1.7922  -35.0499    2.9462 H   0  0
  1  2  1  0  0  0
  2  3  1  0  0  0
  3  4  1  0  0  0
  4  5  1  0  0  0
  5  1  1  0  0  0
  3  6  1  0  0  0
  6  7  1  0  0  0
  7  8  1  0  0  0
  8  9  1  0  0  0
  9  4  1  0  0  0
  2 10  1  0  0  0
  7 11  1  0  0  0
  6 12  1  0  0  0
  8 13  1  0  0  0
 13 14  1  0  0  0
 14 15  1  0  0  0
 14 16  2  0  0  0
  1 17  1  0  0  0
  1 18  1  0  0  0
  2 19  1  0  0  0
  3 20  1  0  0  0
  5 21  1  0  0  0
  5 22  1  0  0  0
  6 23  1  0  0  0
  7 24  1  0  0  0
  8 25  1  0  0  0
  9 26  1  0  0  0
  9 27  1  0  0  0
 10 28  1  0  0  0
 11 29  1  0  0  0
 12 30  1  0  0  0
 13 31  1  0  0  0
 15 32  1  0  0  0
 15 33  1  0  0  0
 15 34  1  0  0  0
M  END
> <Forcefield>
MMFF

> <Chemical Formula>
C10H18N2O4

> <ForcefieldBase>
MMFF

> <ForcefieldFFML>
<?xml version="1.0" encoding="UTF-8"?>
<!DOCTYPE ffml SYSTEM "Ffml.dtd">
<ffml version="1.0">
<forcefield name="6AcCAS-MMFF" derivedFrom="MMFF" base="MMFF">
<atomTypes>
<atomType
 name="C100"
 element="C"
 mass="12.011"
 annotation=""/>
<atomType
 name="N101"
 element="N"
 mass="14.007"
 annotation=""/>
<atomType
 name="O102"
 element="O"
 mass="16"
 annotation=""/>
<atomType
 name="H103"
 element="H"
 mass="1.008"
 annotation=""/>
</atomTypes>
<parameters>
</parameters>
</forcefield>
</ffml>

$$$$
Beta-HNJNAc
  DSViewer          3D                             0

 34 34  0  0  0  0  0  0  0  0999 V2000
   -3.2554  -37.4995    4.0730 C   0  0  2  0  0  0
   -2.2754  -36.5901    4.8422 C   0  0  2  0  0  0
   -1.1077  -36.2856    3.9885 N   0  0
   -1.5267  -35.5550    2.7726 C   0  0  2  0  0  0
   -2.4957  -36.4331    1.9325 C   0  0  1  0  0  0
   -3.7223  -36.7533    2.8234 C   0  0  1  0  0  0
   -1.7907  -37.2987    6.1228 C   0  0
   -4.6488  -37.5761    2.1141 O   0  0
   -4.3927  -37.7919    4.8875 O   0  0
   -2.9283  -35.6668    0.7570 N   0  0
   -0.2635  -35.2105    1.9510 C   0  0
   -2.9033  -37.5766    6.9786 O   0  0
   -3.3364  -36.1821   -0.4190 C   0  0
   -3.4070  -37.6654   -0.6968 C   0  0
   -3.6706  -35.3948   -1.3168 O   0  0
   -0.6145  -34.4745    0.7788 O   0  0
   -2.7559  -38.4252    3.7872 H   0  0
   -2.7788  -35.6615    5.1110 H   0  0
   -0.6334  -37.2011    3.7024 H   0  0
   -2.0324  -34.6336    3.0611 H   0  0
   -2.0011  -37.3540    1.6234 H   0  0
   -4.2113  -35.8242    3.1162 H   0  0
   -1.2996  -38.2339    5.8541 H   0  0
   -1.0846  -36.6544    6.6466 H   0  0
   -4.9741  -37.0741    1.2511 H   0  0
   -4.0807  -38.2824    5.7619 H   0  0
   -2.9186  -34.6003    0.8423 H   0  0
    0.4097  -34.6103    2.5632 H   0  0
    0.2367  -36.1337    1.6584 H   0  0
   -3.3777  -36.6771    7.2400 H   0  0
   -3.7651  -37.8286   -1.7132 H   0  0
   -4.0919  -38.1356    0.0090 H   0  0
   -2.4151  -38.1038   -0.5868 H   0  0
   -1.2612  -35.0497    0.1843 H   0  0
  1  2  1  0  0  0
  2  3  1  0  0  0
  3  4  1  0  0  0
  4  5  1  0  0  0
  5  6  1  0  0  0
  6  1  1  0  0  0
  2  7  1  0  0  0
  6  8  1  0  0  0
  1  9  1  0  0  0
  5 10  1  0  0  0
  4 11  1  0  0  0
  7 12  1  0  0  0
 10 13  1  0  0  0
 13 14  1  0  0  0
 13 15  2  0  0  0
 11 16  1  0  0  0
  1 17  1  0  0  0
  2 18  1  0  0  0
  3 19  1  0  0  0
  4 20  1  0  0  0
  5 21  1  0  0  0
  6 22  1  0  0  0
  7 23  1  0  0  0
  7 24  1  0  0  0
  8 25  1  0  0  0
  9 26  1  0  0  0
 10 27  1  0  0  0
 11 28  1  0  0  0
 11 29  1  0  0  0
 12 30  1  0  0  0
 14 31  1  0  0  0
 14 32  1  0  0  0
 14 33  1  0  0  0
 16 34  1  0  0  0
M  END
> <Clean Energy>
1.75802

> <Forcefield>
MMFF

> <Chemical Formula>
C9H18N2O5

> <ForcefieldBase>
MMFF

> <ForcefieldFFML>
<?xml version="1.0" encoding="UTF-8"?>
<!DOCTYPE ffml SYSTEM "Ffml.dtd">
<ffml version="1.0">
<forcefield name="Beta-HNJNAc-MMFF" derivedFrom="MMFF" base="MMFF">
<atomTypes>
<atomType
 name="C100"
 element="C"
 mass="12.011"
 annotation=""/>
<atomType
 name="N101"
 element="N"
 mass="14.007"
 annotation=""/>
<atomType
 name="O102"
 element="O"
 mass="16"
 annotation=""/>
<atomType
 name="H103"
 element="H"
 mass="1.008"
 annotation=""/>
</atomTypes>
<parameters>
</parameters>
</forcefield>
</ffml>

$$$$
IFG
  DSViewer          3D                             0

 30 30  0  0  0  0  0  0  0  0999 V2000
   -4.1313  -37.3036    4.0417 C   0  0
   -2.7546  -37.2634    4.7316 C   0  0  1  0  0  0
   -1.9684  -36.0599    4.2003 C   0  0  2  0  0  0
   -1.8056  -36.2098    2.6848 C   0  0  1  0  0  0
   -3.1987  -36.2838    2.0348 C   0  0  2  0  0  0
   -3.9507  -37.4358    2.5800 N   0  0
   -2.9364  -37.1309    6.2517 C   0  0
   -1.0859  -35.0931    2.1636 O   0  0
   -3.0400  -36.4248    0.6117 N   0  0
   -4.0372  -36.8662   -0.1565 C   0  0
   -3.8251  -37.0002   -1.6362 C   0  0
   -5.1289  -37.1633    0.3351 O   0  0
   -1.6539  -37.0914    6.8803 O   0  0
   -0.4832  -36.2604    4.1358 O   0  0
   -4.6993  -38.1556    4.4154 H   0  0
   -4.6723  -36.3825    4.2583 H   0  0
   -2.2095  -38.1807    4.5092 H   0  0
   -2.3018  -35.0824    4.5486 H   0  0
   -1.2568  -37.1264    2.4689 H   0  0
   -3.7445  -35.3645    2.2470 H   0  0
   -3.4102  -38.3360    2.3739 H   0  0
   -3.4790  -36.2122    6.4744 H   0  0
   -3.4991  -37.9858    6.6266 H   0  0
   -1.6132  -34.2089    2.3703 H   0  0
   -2.1035  -36.1706    0.1607 H   0  0
   -4.7377  -37.3713   -2.1024 H   0  0
   -3.0108  -37.6998   -1.8251 H   0  0
   -3.5724  -36.0270   -2.0571 H   0  0
   -1.1309  -37.9762    6.6654 H   0  0
   -0.1147  -36.4623    5.0981 H   0  0
  1  2  1  0  0  0
  2  3  1  0  0  0
  3  4  1  0  0  0
  4  5  1  0  0  0
  5  6  1  0  0  0
  6  1  1  0  0  0
  2  7  1  0  0  0
  4  8  1  0  0  0
  5  9  1  0  0  0
  9 10  1  0  0  0
 10 11  1  0  0  0
 10 12  2  0  0  0
  7 13  1  0  0  0
  3 14  1  0  0  0
  1 15  1  0  0  0
  1 16  1  0  0  0
  2 17  1  0  0  0
  3 18  1  0  0  0
  4 19  1  0  0  0
  5 20  1  0  0  0
  6 21  1  0  0  0
  7 22  1  0  0  0
  7 23  1  0  0  0
  8 24  1  0  0  0
  9 25  1  0  0  0
 11 26  1  0  0  0
 11 27  1  0  0  0
 11 28  1  0  0  0
 13 29  1  0  0  0
 14 30  1  0  0  0
M  END
> <Forcefield>
MMFF

> <Chemical Formula>
C8H16N2O4

> <ForcefieldBase>
MMFF

> <ForcefieldFFML>
<?xml version="1.0" encoding="UTF-8"?>
<!DOCTYPE ffml SYSTEM "Ffml.dtd">
<ffml version="1.0">
<forcefield name="IFG-MMFF" derivedFrom="MMFF" base="MMFF">
<atomTypes>
<atomType
 name="C100"
 element="C"
 mass="12.011"
 annotation=""/>
<atomType
 name="N101"
 element="N"
 mass="14.007"
 annotation=""/>
<atomType
 name="O102"
 element="O"
 mass="16"
 annotation=""/>
<atomType
 name="H103"
 element="H"
 mass="1.008"
 annotation=""/>
</atomTypes>
<parameters>
</parameters>
</forcefield>
</ffml>

$$$$
Pyrimethamine
  DSViewer          3D                             0

 30 31  0  0  0  0  0  0  0  0999 V2000
   -3.3049  -37.6913    5.9175 C   0  0
   -2.3274  -37.1441    6.6302 C   0  0
   -1.3620  -36.2767    5.9769 C   0  0
   -1.4594  -36.0337    4.6714 C   0  0
   -2.5386  -36.6290    3.8481 C   0  0
   -3.4079  -37.4213    4.4831 C   0  0
   -2.2051  -37.4623    8.3240 Cl  0  0
   -2.6377  -36.3286    2.2992 C   0  0
   -1.7387  -35.5217    1.6949 C   0  0
   -1.8313  -35.2596    0.3251 N   0  0
   -2.7433  -35.7553   -0.4019 C   0  0
   -3.7068  -36.5930    0.1336 N   0  0
   -3.7253  -36.9035    1.3651 C   0  0
   -0.6855  -34.9109    2.3749 N   0  0
   -4.8468  -37.8314    1.7925 C   0  0
   -5.7252  -38.1849    0.5784 C   0  0
   -2.7776  -35.4523   -1.7635 N   0  0
   -4.0321  -38.3429    6.4019 H   0  0
   -0.5571  -35.8244    6.5563 H   0  0
   -0.7272  -35.3807    4.1963 H   0  0
   -4.2175  -37.8800    3.9155 H   0  0
   -0.5615  -35.0727    3.4253 H   0  0
   -0.0015  -34.2804    1.8462 H   0  0
   -4.4214  -38.7445    2.2089 H   0  0
   -5.4570  -37.3367    2.5482 H   0  0
   -6.5285  -38.8514    0.8922 H   0  0
   -5.1173  -38.6806   -0.1785 H   0  0
   -6.1525  -37.2732    0.1607 H   0  0
   -2.0374  -34.8058   -2.1865 H   0  0
   -3.5442  -35.8665   -2.3846 H   0  0
  1  2  2  0  0  0
  2  3  1  0  0  0
  3  4  2  0  0  0
  4  5  1  0  0  0
  5  6  2  0  0  0
  6  1  1  0  0  0
  2  7  1  0  0  0
  5  8  1  0  0  0
  8  9  2  0  0  0
  9 10  1  0  0  0
 10 11  2  0  0  0
 11 12  1  0  0  0
 12 13  2  0  0  0
 13  8  1  0  0  0
  9 14  1  0  0  0
 13 15  1  0  0  0
 15 16  1  0  0  0
 11 17  1  0  0  0
  1 18  1  0  0  0
  3 19  1  0  0  0
  4 20  1  0  0  0
  6 21  1  0  0  0
 14 22  1  0  0  0
 14 23  1  0  0  0
 15 24  1  0  0  0
 15 25  1  0  0  0
 16 26  1  0  0  0
 16 27  1  0  0  0
 16 28  1  0  0  0
 17 29  1  0  0  0
 17 30  1  0  0  0
M  END
> <Forcefield>
MMFF

> <Chemical Formula>
C12H13ClN4

> <ForcefieldBase>
MMFF

> <ForcefieldFFML>
<?xml version="1.0" encoding="UTF-8"?>
<!DOCTYPE ffml SYSTEM "Ffml.dtd">
<ffml version="1.0">
<forcefield name="Pyrimethamine-MMFF" derivedFrom="MMFF" base="MMFF">
<atomTypes>
<atomType
 name="C100"
 element="C"
 mass="12.011"
 annotation=""/>
<atomType
 name="Cl101"
 element="Cl"
 mass="35.453"
 annotation=""/>
<atomType
 name="N102"
 element="N"
 mass="14.007"
 annotation=""/>
<atomType
 name="H103"
 element="H"
 mass="1.008"
 annotation=""/>
</atomTypes>
<parameters>
</parameters>
</forcefield>
</ffml>

$$$$
Streptozotocin
  DSViewer          3D                             0

 33 33  0  0  0  0  0  0  0  0999 V2000
   -4.7038  -38.7073    4.8707 C   0  0  2  0  0  0
   -3.8496  -37.8224    5.7954 C   0  0  2  0  0  0
   -2.6571  -37.2861    4.9995 C   0  0  1  0  0  0
   -3.1921  -36.4838    3.8078 C   0  0  2  0  0  0
   -4.0831  -37.4308    2.9548 C   0  0  2  0  0  0
   -5.1759  -37.9372    3.7487 O   0  0
   -2.0489  -35.9390    3.0624 N   0  0
   -2.0703  -35.5172    1.7002 C   0  0
   -0.9230  -34.9606    1.1398 N   0  0
   -0.9381  -34.5508   -0.1260 N   0  0
    0.0199  -34.0639   -0.6015 O   0  0
    0.2664  -34.8158    1.9301 C   0  0
   -3.0855  -35.6056    0.9991 O   0  0
   -1.8574  -36.4477    5.8348 O   0  0
   -3.2983  -38.5243    2.4730 O   0  0
   -5.9113  -39.2423    5.6548 C   0  0
   -3.3841  -38.5912    6.9062 O   0  0
   -6.7076  -40.0589    4.7937 O   0  0
   -4.1039  -39.5434    4.5114 H   0  0
   -4.4504  -36.9879    6.1570 H   0  0
   -2.0557  -38.1200    4.6373 H   0  0
   -3.8013  -35.6593    4.1782 H   0  0
   -4.4840  -36.8767    2.1060 H   0  0
   -1.1204  -35.8511    3.5868 H   0  0
    1.0527  -34.3647    1.3250 H   0  0
    0.5934  -35.7957    2.2782 H   0  0
    0.0574  -34.1770    2.7883 H   0  0
   -2.4360  -35.6419    6.1791 H   0  0
   -2.5128  -38.1578    1.8804 H   0  0
   -5.5629  -39.8358    6.5000 H   0  0
   -6.5086  -38.4064    6.0189 H   0  0
   -4.2057  -38.9633    7.4439 H   0  0
   -7.0424  -39.4870    3.9792 H   0  0
  1  2  1  0  0  0
  2  3  1  0  0  0
  3  4  1  0  0  0
  4  5  1  0  0  0
  5  6  1  0  0  0
  6  1  1  0  0  0
  4  7  1  0  0  0
  7  8  1  0  0  0
  8  9  1  0  0  0
  9 10  1  0  0  0
 10 11  2  0  0  0
  9 12  1  0  0  0
  8 13  2  0  0  0
  3 14  1  0  0  0
  5 15  1  0  0  0
  1 16  1  0  0  0
  2 17  1  0  0  0
 16 18  1  0  0  0
  1 19  1  0  0  0
  2 20  1  0  0  0
  3 21  1  0  0  0
  4 22  1  0  0  0
  5 23  1  0  0  0
  7 24  1  0  0  0
 12 25  1  0  0  0
 12 26  1  0  0  0
 12 27  1  0  0  0
 14 28  1  0  0  0
 15 29  1  0  0  0
 16 30  1  0  0  0
 16 31  1  0  0  0
 17 32  1  0  0  0
 18 33  1  0  0  0
M  END
> <Forcefield>
MMFF

> <Chemical Formula>
C8H15N3O7

> <ForcefieldBase>
MMFF

> <ForcefieldFFML>
<?xml version="1.0" encoding="UTF-8"?>
<!DOCTYPE ffml SYSTEM "Ffml.dtd">
<ffml version="1.0">
<forcefield name="Streptozotocin-MMFF" derivedFrom="MMFF" base="MMFF">
<atomTypes>
<atomType
 name="C100"
 element="C"
 mass="12.011"
 annotation=""/>
<atomType
 name="O101"
 element="O"
 mass="16"
 annotation=""/>
<atomType
 name="N102"
 element="N"
 mass="14.007"
 annotation=""/>
<atomType
 name="H103"
 element="H"
 mass="1.008"
 annotation=""/>
</atomTypes>
<parameters>
</parameters>
</forcefield>
</ffml>

$$$$
Thiamet-G
  DSViewer          3D                             0

 32 33  0  0  0  0  0  0  0  0999 V2000
   -4.4746  -38.6855    4.6313 C   0  0  2  0  0  0
   -3.7214  -37.7241    5.6035 C   0  0  2  0  0  0
   -2.4914  -37.2368    4.9894 O   0  0
   -2.8259  -36.5250    3.7975 C   0  0  2  0  0  0
   -3.5109  -37.4414    2.7537 C   0  0  1  0  0  0
   -4.8241  -37.9324    3.3282 C   0  0  1  0  0  0
   -1.5721  -35.8730    2.8394 S   0  0
   -2.3586  -35.9233    1.3558 C   0  0
   -3.5452  -36.6920    1.4766 N   0  0
   -5.4817  -38.8083    2.4112 O   0  0
   -5.6739  -39.1583    5.2470 O   0  0
   -3.3747  -38.4818    6.8950 C   0  0
   -2.6933  -37.6017    7.7909 O   0  0
   -1.9574  -35.3539    0.2938 N   0  0
   -0.7390  -34.5983    0.3051 C   0  0
   -0.5045  -33.9833   -1.0858 C   0  0
   -3.8326  -39.5341    4.3953 H   0  0
   -4.3645  -36.8775    5.8437 H   0  0
   -3.5155  -35.7217    4.0570 H   0  0
   -2.8698  -38.3108    2.6080 H   0  0
   -5.4687  -37.0830    3.5543 H   0  0
   -4.3385  -36.7250    0.7593 H   0  0
   -5.6746  -38.2965    1.5148 H   0  0
   -5.4347  -39.6757    6.1288 H   0  0
   -4.2911  -38.8403    7.3637 H   0  0
   -2.7315  -39.3293    6.6581 H   0  0
   -1.8108  -37.2559    7.3390 H   0  0
   -0.8118  -33.8026    1.0466 H   0  0
    0.0936  -35.2552    0.5569 H   0  0
    0.4216  -33.4086   -1.0782 H   0  0
   -1.3370  -33.3264   -1.3382 H   0  0
   -0.4319  -34.7786   -1.8277 H   0  0
  1  2  1  0  0  0
  2  3  1  0  0  0
  3  4  1  0  0  0
  4  5  1  0  0  0
  5  6  1  0  0  0
  6  1  1  0  0  0
  4  7  1  0  0  0
  7  8  1  0  0  0
  8  9  1  0  0  0
  9  5  1  0  0  0
  6 10  1  0  0  0
  1 11  1  0  0  0
  2 12  1  0  0  0
 12 13  1  0  0  0
  8 14  2  0  0  0
 14 15  1  0  0  0
 15 16  1  0  0  0
  1 17  1  0  0  0
  2 18  1  0  0  0
  4 19  1  0  0  0
  5 20  1  0  0  0
  6 21  1  0  0  0
  9 22  1  0  0  0
 10 23  1  0  0  0
 11 24  1  0  0  0
 12 25  1  0  0  0
 12 26  1  0  0  0
 13 27  1  0  0  0
 15 28  1  0  0  0
 15 29  1  0  0  0
 16 30  1  0  0  0
 16 31  1  0  0  0
 16 32  1  0  0  0
M  END
> <Ki>
21nM

> <Forcefield>
MMFF

> <Chemical Formula>
C9H16N2O4S

> <ForcefieldBase>
MMFF

> <ForcefieldFFML>
<?xml version="1.0" encoding="UTF-8"?>
<!DOCTYPE ffml SYSTEM "Ffml.dtd">
<ffml version="1.0">
<forcefield name="Thiamet-G-MMFF" derivedFrom="MMFF" base="MMFF">
<atomTypes>
<atomType
 name="C100"
 element="C"
 mass="12.011"
 annotation=""/>
<atomType
 name="O101"
 element="O"
 mass="16"
 annotation=""/>
<atomType
 name="S102"
 element="S"
 mass="32.066"
 annotation=""/>
<atomType
 name="N103"
 element="N"
 mass="14.007"
 annotation=""/>
<atomType
 name="H104"
 element="H"
 mass="1.008"
 annotation=""/>
</atomTypes>
<parameters>
</parameters>
</forcefield>
</ffml>

$$$$
GlcNAcstatin C
  DSViewer          3D                             0

 54 56  0  0  0  0  0  0  0  0999 V2000
   -5.7887  -38.6670    5.5507 C   0  0  1  0  0  0
   -4.4628  -39.3980    5.8590 C   0  0  1  0  0  0
   -3.2663  -38.4395    5.4652 C   0  0  1  0  0  0
   -3.4726  -37.8847    4.0609 C   0  0
   -4.7209  -37.8574    3.4581 N   0  0
   -5.8903  -38.4829    3.9690 C   0  0  1  0  0  0
   -2.6164  -37.3493    3.3180 N   0  0
   -3.2983  -36.9598    2.1213 C   0  0
   -4.5924  -37.2798    2.2091 C   0  0
   -2.6582  -36.2970    0.9210 C   0  0
   -3.6436  -36.2913   -0.2804 C   0  0
   -3.0343  -35.6152   -1.4942 C   0  0
   -1.8810  -34.9525   -1.3960 C   0  0
   -1.3027  -34.3026   -2.5793 C   0  0
   -1.9260  -34.3768   -3.7545 C   0  0
   -3.1914  -35.1061   -3.8658 C   0  0
   -3.7197  -35.6929   -2.7919 C   0  0
   -3.1713  -37.2856    6.3453 N   0  0
   -2.6216  -37.4540    7.5627 C   0  0
   -2.4329  -36.3065    8.5059 C   0  0
   -2.2487  -38.5757    7.9179 O   0  0
   -1.6856  -36.7815    9.7696 C   0  0
   -1.6788  -35.1608    7.8056 C   0  0
   -4.3629  -39.7396    7.2431 O   0  0
   -5.9804  -39.8639    3.2391 C   0  0
   -6.9171  -39.4288    5.9801 O   0  0
   -7.1310  -40.5935    3.6684 O   0  0
   -5.7946  -37.6917    6.0373 H   0  0
   -4.4066  -40.3070    5.2600 H   0  0
   -2.3305  -38.9974    5.4991 H   0  0
   -6.7654  -37.8806    3.7248 H   0  0
   -5.3715  -37.1211    1.4636 H   0  0
   -2.3950  -35.2702    1.1750 H   0  0
   -1.7578  -36.8458    0.6449 H   0  0
   -3.8954  -37.3203   -0.5371 H   0  0
   -4.5487  -35.7559    0.0063 H   0  0
   -1.3672  -34.8932   -0.4366 H   0  0
   -0.3618  -33.7585   -2.4959 H   0  0
   -1.4947  -33.8954   -4.6322 H   0  0
   -3.7013  -35.1690   -4.8272 H   0  0
   -4.6632  -36.2321   -2.8765 H   0  0
   -3.5293  -36.3268    6.0332 H   0  0
   -3.4154  -35.9405    8.8040 H   0  0
   -1.5521  -35.9412   10.4508 H   0  0
   -0.7103  -37.1786    9.4879 H   0  0
   -2.2656  -37.5608   10.2640 H   0  0
   -1.5478  -34.3324    8.5018 H   0  0
   -2.2518  -34.8221    6.9424 H   0  0
   -0.7022  -35.5158    7.4763 H   0  0
   -4.4030  -38.8655    7.8235 H   0  0
   -6.0453  -39.6956    2.1641 H   0  0
   -5.0857  -40.4448    3.4631 H   0  0
   -6.9246  -40.3541    5.4839 H   0  0
   -7.0731  -40.7622    4.7032 H   0  0
  1  2  1  0  0  0
  2  3  1  0  0  0
  3  4  1  0  0  0
  4  5  1  0  0  0
  5  6  1  0  0  0
  6  1  1  0  0  0
  4  7  2  0  0  0
  7  8  1  0  0  0
  8  9  2  0  0  0
  9  5  1  0  0  0
  8 10  1  0  0  0
 10 11  1  0  0  0
 11 12  1  0  0  0
 12 13  2  0  0  0
 13 14  1  0  0  0
 14 15  2  0  0  0
 15 16  1  0  0  0
 16 17  2  0  0  0
 17 12  1  0  0  0
  3 18  1  0  0  0
 18 19  1  0  0  0
 19 20  1  0  0  0
 19 21  2  0  0  0
 20 22  1  0  0  0
 20 23  1  0  0  0
  2 24  1  0  0  0
  6 25  1  0  0  0
  1 26  1  0  0  0
 25 27  1  0  0  0
  1 28  1  0  0  0
  2 29  1  0  0  0
  3 30  1  0  0  0
  6 31  1  0  0  0
  9 32  1  0  0  0
 10 33  1  0  0  0
 10 34  1  0  0  0
 11 35  1  0  0  0
 11 36  1  0  0  0
 13 37  1  0  0  0
 14 38  1  0  0  0
 15 39  1  0  0  0
 16 40  1  0  0  0
 17 41  1  0  0  0
 18 42  1  0  0  0
 20 43  1  0  0  0
 22 44  1  0  0  0
 22 45  1  0  0  0
 22 46  1  0  0  0
 23 47  1  0  0  0
 23 48  1  0  0  0
 23 49  1  0  0  0
 24 50  1  0  0  0
 25 51  1  0  0  0
 25 52  1  0  0  0
 26 53  1  0  0  0
 27 54  1  0  0  0
M  END
> <Reference>
Liu et al., 2012

> <Ki>
4.4nM

> <Forcefield>
MMFF

> <Chemical Formula>
C20H27N3O4

> <ForcefieldBase>
MMFF

> <ForcefieldFFML>
<?xml version="1.0" encoding="UTF-8"?>
<!DOCTYPE ffml SYSTEM "Ffml.dtd">
<ffml version="1.0">
<forcefield name="GlcNAcstatin C-MMFF" derivedFrom="MMFF" base="MMFF">
<atomTypes>
<atomType
 name="C100"
 element="C"
 mass="12.011"
 annotation=""/>
<atomType
 name="N101"
 element="N"
 mass="14.007"
 annotation=""/>
<atomType
 name="O102"
 element="O"
 mass="16"
 annotation=""/>
<atomType
 name="H103"
 element="H"
 mass="1.008"
 annotation=""/>
</atomTypes>
<parameters>
</parameters>
</forcefield>
</ffml>

$$$$
mitoxantrone
  DSViewer          3D                             0

 60 62  0  0  0  0  0  0  0  0999 V2000
   -5.3518  -39.3443    6.5320 C   0  0
   -4.3861  -38.8137    7.2776 C   0  0
   -3.3900  -37.9340    6.6660 C   0  0
   -3.4522  -37.6647    5.3593 C   0  0
   -4.5064  -38.2441    4.5453 C   0  0
   -5.4172  -39.0475    5.1010 C   0  0
   -2.4691  -36.7882    4.7211 C   0  0
   -2.5561  -36.5036    3.2745 C   0  0
   -3.5307  -37.0391    2.5220 C   0  0
   -4.5477  -37.9300    3.1164 C   0  0
   -1.5523  -35.6148    2.6485 C   0  0
   -1.6208  -35.3512    1.3454 C   0  0
   -2.6787  -35.9324    0.5286 C   0  0
   -3.5900  -36.7342    1.0753 C   0  0
   -6.4317  -39.6084    4.3325 O   0  0
   -2.3855  -37.3856    7.4563 O   0  0
   -5.4342  -38.4099    2.4023 O   0  0
   -1.5626  -36.2831    5.3914 O   0  0
   -4.6037  -37.2840    0.2631 N   0  0
   -0.5187  -35.0399    3.4170 N   0  0
   -4.6440  -36.9737   -1.1488 C   0  0
   -5.8333  -37.6825   -1.8362 C   0  0
   -5.8346  -37.3377   -3.2727 N   0  0
   -6.9593  -37.9994   -3.9578 C   0  0
   -6.9389  -37.6238   -5.4556 C   0  0
   -8.0280  -38.2618   -6.1306 O   0  0
    0.4524  -34.1736    2.7861 C   0  0
    1.4861  -33.6615    3.8150 C   0  0
    2.4551  -32.7831    3.1278 N   0  0
    3.4562  -32.2773    4.0838 C   0  0
    4.4560  -31.3630    3.3424 C   0  0
    5.4333  -30.8661    4.2627 O   0  0
   -6.0941  -40.0000    6.9872 H   0  0
   -4.3371  -39.0343    8.3439 H   0  0
   -0.8805  -34.6962    0.8861 H   0  0
   -2.7240  -35.7091   -0.5373 H   0  0
   -7.0075  -38.8440    3.9004 H   0  0
   -2.8161  -36.8010    8.2148 H   0  0
   -5.3418  -37.9298    0.6911 H   0  0
   -0.4533  -35.2443    4.4653 H   0  0
   -4.7502  -35.8962   -1.2743 H   0  0
   -3.7150  -37.3043   -1.6133 H   0  0
   -5.7322  -38.7616   -1.7197 H   0  0
   -6.7673  -37.3534   -1.3807 H   0  0
   -4.9144  -37.6598   -3.7136 H   0  0
   -6.8641  -39.0801   -3.8525 H   0  0
   -7.8992  -37.6719   -3.5135 H   0  0
   -7.0329  -36.5428   -5.5587 H   0  0
   -5.9978  -37.9510   -5.8978 H   0  0
   -7.9389  -39.3035   -6.0331 H   0  0
    0.9716  -34.7291    2.0051 H   0  0
   -0.0638  -33.3211    2.3446 H   0  0
    0.9754  -33.1002    4.5974 H   0  0
    2.0108  -34.5080    4.2578 H   0  0
    1.9342  -31.9562    2.6922 H   0  0
    2.9558  -31.7089    4.8677 H   0  0
    3.9914  -33.1166    4.5280 H   0  0
    4.9543  -31.9329    2.5583 H   0  0
    3.9188  -30.5252    2.8979 H   0  0
    4.9552  -30.3162    5.0187 H   0  0
  1  2  2  0  0  0
  2  3  1  0  0  0
  3  4  2  0  0  0
  4  5  1  0  0  0
  5  6  2  0  0  0
  6  1  1  0  0  0
  4  7  1  0  0  0
  7  8  1  0  0  0
  8  9  2  0  0  0
  9 10  1  0  0  0
 10  5  1  0  0  0
  8 11  1  0  0  0
 11 12  2  0  0  0
 12 13  1  0  0  0
 13 14  2  0  0  0
 14  9  1  0  0  0
  6 15  1  0  0  0
  3 16  1  0  0  0
 10 17  2  0  0  0
  7 18  2  0  0  0
 14 19  1  0  0  0
 11 20  1  0  0  0
 19 21  1  0  0  0
 21 22  1  0  0  0
 22 23  1  0  0  0
 23 24  1  0  0  0
 24 25  1  0  0  0
 25 26  1  0  0  0
 20 27  1  0  0  0
 27 28  1  0  0  0
 28 29  1  0  0  0
 29 30  1  0  0  0
 30 31  1  0  0  0
 31 32  1  0  0  0
  1 33  1  0  0  0
  2 34  1  0  0  0
 12 35  1  0  0  0
 13 36  1  0  0  0
 15 37  1  0  0  0
 16 38  1  0  0  0
 19 39  1  0  0  0
 20 40  1  0  0  0
 21 41  1  0  0  0
 21 42  1  0  0  0
 22 43  1  0  0  0
 22 44  1  0  0  0
 23 45  1  0  0  0
 24 46  1  0  0  0
 24 47  1  0  0  0
 25 48  1  0  0  0
 25 49  1  0  0  0
 26 50  1  0  0  0
 27 51  1  0  0  0
 27 52  1  0  0  0
 28 53  1  0  0  0
 28 54  1  0  0  0
 29 55  1  0  0  0
 30 56  1  0  0  0
 30 57  1  0  0  0
 31 58  1  0  0  0
 31 59  1  0  0  0
 32 60  1  0  0  0
M  END
> <Forcefield>
MMFF

> <Chemical Formula>
C22H28N4O6

> <ForcefieldBase>
MMFF

> <ForcefieldFFML>
<?xml version="1.0" encoding="UTF-8"?>
<!DOCTYPE ffml SYSTEM "Ffml.dtd">
<ffml version="1.0">
<forcefield name="mitoxantrone-MMFF" derivedFrom="MMFF" base="MMFF">
<atomTypes>
<atomType
 name="C100"
 element="C"
 mass="12.011"
 annotation=""/>
<atomType
 name="O101"
 element="O"
 mass="16"
 annotation=""/>
<atomType
 name="N102"
 element="N"
 mass="14.007"
 annotation=""/>
<atomType
 name="H103"
 element="H"
 mass="1.008"
 annotation=""/>
</atomTypes>
<parameters>
</parameters>
</forcefield>
</ffml>

$$$$
chlorhexidine
  DSViewer          3D                             0

 64 65  0  0  0  0  0  0  0  0999 V2000
   -5.9195  -41.3379   13.0744 C   0  0
   -5.0902  -40.9629   14.0486 C   0  0
   -3.9703  -40.0676   13.7522 C   0  0
   -3.7829  -39.6300   12.5092 C   0  0
   -4.6944  -40.0420   11.4373 C   0  0
   -5.7185  -40.8577   11.6959 C   0  0
   -6.6282  -41.2804   10.6740 N   0  0
   -6.5717  -40.9041    9.2850 C   0  0
   -7.4624  -41.3700    8.4999 N   0  0
   -5.5792  -40.0548    8.7887 N   0  0
   -7.5418  -41.0905    7.0977 C   0  0
   -8.5762  -41.6742    6.3639 N   0  0
   -6.7081  -40.3312    6.4903 N   0  0
   -6.8688  -40.1016    5.0469 C   0  0
   -5.7652  -39.1507    4.4670 C   0  0
   -5.9712  -38.9290    2.9181 C   0  0
   -4.8643  -37.9754    2.3370 C   0  0
   -5.0336  -37.7265    0.7874 C   0  0
   -3.8949  -36.7678    0.2824 C   0  0
   -3.9648  -36.4720   -1.1580 N   0  0
   -3.0806  -35.6980   -1.6721 C   0  0
   -3.0929  -35.3680   -3.0792 N   0  0
   -2.8918  -39.5783   15.0128 Cl  0  0
   -2.0955  -35.1760   -0.8324 N   0  0
   -2.2131  -34.5928   -3.6115 C   0  0
   -2.2793  -34.3005   -5.0262 N   0  0
   -1.2055  -34.0436   -2.8157 N   0  0
   -1.3538  -33.4465   -5.7462 C   0  0
   -0.3299  -32.8392   -5.1425 C   0  0
    0.5892  -31.9803   -5.9019 C   0  0
    0.4079  -31.7988   -7.2079 C   0  0
   -0.7111  -32.4584   -7.8846 C   0  0
   -1.5463  -33.2388   -7.1946 C   0  0
    1.4924  -30.7862   -8.1007 Cl  0  0
   -6.7520  -42.0045   13.2992 H   0  0
   -5.2460  -41.3227   15.0657 H   0  0
   -2.9494  -38.9635   12.2875 H   0  0
   -4.5345  -39.6795   10.4219 H   0  0
   -7.4215  -41.9349   10.9690 H   0  0
   -4.8317  -39.6636    9.4468 H   0  0
   -5.5669  -39.7955    7.7507 H   0  0
   -9.2839  -42.3119    6.8510 H   0  0
   -8.6612  -41.4838    5.3144 H   0  0
   -6.8109  -41.0602    4.5313 H   0  0
   -7.8460  -39.6521    4.8706 H   0  0
   -5.8202  -38.1883    4.9757 H   0  0
   -4.7851  -39.5965    4.6365 H   0  0
   -5.9162  -39.8914    2.4093 H   0  0
   -6.9513  -38.4832    2.7485 H   0  0
   -4.9225  -37.0171    2.8532 H   0  0
   -3.8874  -38.4253    2.5139 H   0  0
   -4.9693  -38.6770    0.2578 H   0  0
   -6.0044  -37.2689    0.5971 H   0  0
   -3.9682  -35.8283    0.8303 H   0  0
   -2.9331  -37.2364    0.4910 H   0  0
   -2.0928  -35.4248    0.2083 H   0  0
   -1.3430  -34.5271   -1.2294 H   0  0
   -3.0732  -34.7494   -5.5858 H   0  0
   -1.1677  -34.2677   -1.7701 H   0  0
   -0.4713  -33.3987   -3.2515 H   0  0
   -0.1737  -32.9821   -4.0732 H   0  0
    1.4208  -31.4911   -5.3948 H   0  0
   -0.8624  -32.3119   -8.9540 H   0  0
   -2.3768  -33.7265   -7.7051 H   0  0
  1  2  2  0  0  0
  2  3  1  0  0  0
  3  4  2  0  0  0
  4  5  1  0  0  0
  5  6  2  0  0  0
  6  1  1  0  0  0
  6  7  1  0  0  0
  7  8  1  0  0  0
  8  9  2  0  0  0
  8 10  1  0  0  0
  9 11  1  0  0  0
 11 12  1  0  0  0
 11 13  2  0  0  0
 13 14  1  0  0  0
 14 15  1  0  0  0
 15 16  1  0  0  0
 16 17  1  0  0  0
 17 18  1  0  0  0
 18 19  1  0  0  0
 19 20  1  0  0  0
 20 21  2  0  0  0
 21 22  1  0  0  0
  3 23  1  0  0  0
 21 24  1  0  0  0
 22 25  2  0  0  0
 25 26  1  0  0  0
 25 27  1  0  0  0
 26 28  1  0  0  0
 28 29  2  0  0  0
 29 30  1  0  0  0
 30 31  2  0  0  0
 31 32  1  0  0  0
 32 33  2  0  0  0
 33 28  1  0  0  0
 31 34  1  0  0  0
  1 35  1  0  0  0
  2 36  1  0  0  0
  4 37  1  0  0  0
  5 38  1  0  0  0
  7 39  1  0  0  0
 10 40  1  0  0  0
 10 41  1  0  0  0
 12 42  1  0  0  0
 12 43  1  0  0  0
 14 44  1  0  0  0
 14 45  1  0  0  0
 15 46  1  0  0  0
 15 47  1  0  0  0
 16 48  1  0  0  0
 16 49  1  0  0  0
 17 50  1  0  0  0
 17 51  1  0  0  0
 18 52  1  0  0  0
 18 53  1  0  0  0
 19 54  1  0  0  0
 19 55  1  0  0  0
 24 56  1  0  0  0
 24 57  1  0  0  0
 26 58  1  0  0  0
 27 59  1  0  0  0
 27 60  1  0  0  0
 29 61  1  0  0  0
 30 62  1  0  0  0
 32 63  1  0  0  0
 33 64  1  0  0  0
M  END
> <Forcefield>
MMFF

> <Chemical Formula>
C22H30Cl2N10

> <ForcefieldBase>
MMFF

> <ForcefieldFFML>
<?xml version="1.0" encoding="UTF-8"?>
<!DOCTYPE ffml SYSTEM "Ffml.dtd">
<ffml version="1.0">
<forcefield name="chlorhexidine-MMFF" derivedFrom="MMFF" base="MMFF">
<atomTypes>
<atomType
 name="C100"
 element="C"
 mass="12.011"
 annotation=""/>
<atomType
 name="N101"
 element="N"
 mass="14.007"
 annotation=""/>
<atomType
 name="Cl102"
 element="Cl"
 mass="35.453"
 annotation=""/>
<atomType
 name="H103"
 element="H"
 mass="1.008"
 annotation=""/>
</atomTypes>
<parameters>
</parameters>
</forcefield>
</ffml>

$$$$
Memantine
  DSViewer          3D                             0

 34 36  0  0  0  0  0  0  0  0999 V2000
   -3.7604  -37.9668    0.9050 N   0  0
   -1.9394  -35.1769    2.7960 C   0  0  2  0  0  0
   -3.2989  -36.5556    4.4365 C   0  0  1  0  0  0
   -3.0734  -37.3118    2.0249 C   0  0
   -1.0744  -37.4290    3.5831 C   0  0
   -2.8925  -35.1122    4.0234 C   0  0
   -2.6667  -35.8694    1.6085 C   0  0
   -4.0282  -37.2500    3.2512 C   0  0
   -0.6646  -35.9869    3.1690 C   0  0
   -2.0261  -37.3675    4.8118 C   0  0
   -1.8002  -38.1250    2.3967 C   0  0
   -1.5365  -33.7493    2.3861 C   0  0
   -4.2422  -36.4930    5.6508 C   0  0
   -3.1051  -38.0103    0.0602 H   0  0
   -4.6365  -37.4089    0.6480 H   0  0
   -0.1820  -37.9976    3.8448 H   0  0
   -2.3824  -34.6258    4.8549 H   0  0
   -3.7850  -34.5439    3.7614 H   0  0
   -3.5592  -35.3009    1.3470 H   0  0
   -1.9986  -35.9136    0.7485 H   0  0
   -4.3135  -38.2611    3.5416 H   0  0
   -4.9204  -36.6812    2.9894 H   0  0
    0.0031  -36.0312    2.3085 H   0  0
   -0.1547  -35.5004    4.0005 H   0  0
   -1.5161  -36.8810    5.6432 H   0  0
   -2.3118  -38.3787    5.1018 H   0  0
   -2.0860  -39.1359    2.6873 H   0  0
   -1.1322  -38.1687    1.5365 H   0  0
   -0.8685  -33.7926    1.5260 H   0  0
   -1.0267  -33.2623    3.2173 H   0  0
   -2.4287  -33.1805    2.1242 H   0  0
   -4.5282  -37.5037    5.9418 H   0  0
   -5.1348  -35.9246    5.3893 H   0  0
   -3.7328  -36.0064    6.4826 H   0  0
  1  4  1  0  0  0
  2  6  1  0  0  0
  2  7  1  0  0  0
  2  9  1  0  0  0
  2 12  1  0  0  0
  3  6  1  0  0  0
  3  8  1  0  0  0
  3 10  1  0  0  0
  3 13  1  0  0  0
  4  7  1  0  0  0
  4  8  1  0  0  0
  4 11  1  0  0  0
  5  9  1  0  0  0
  5 10  1  0  0  0
  5 11  1  0  0  0
  1 14  1  0  0  0
  1 15  1  0  0  0
  5 16  1  0  0  0
  6 17  1  0  0  0
  6 18  1  0  0  0
  7 19  1  0  0  0
  7 20  1  0  0  0
  8 21  1  0  0  0
  8 22  1  0  0  0
  9 23  1  0  0  0
  9 24  1  0  0  0
 10 25  1  0  0  0
 10 26  1  0  0  0
 11 27  1  0  0  0
 11 28  1  0  0  0
 12 29  1  0  0  0
 12 30  1  0  0  0
 12 31  1  0  0  0
 13 32  1  0  0  0
 13 33  1  0  0  0
 13 34  1  0  0  0
M  END
> <Forcefield>
MMFF

> <Chemical Formula>
C12H21N

> <ForcefieldBase>
MMFF

> <ForcefieldFFML>
<?xml version="1.0" encoding="UTF-8"?>
<!DOCTYPE ffml SYSTEM "Ffml.dtd">
<ffml version="1.0">
<forcefield name="Memantine-MMFF" derivedFrom="MMFF" base="MMFF">
<atomTypes>
<atomType
 name="N100"
 element="N"
 mass="14.007"
 annotation=""/>
<atomType
 name="C101"
 element="C"
 mass="12.011"
 annotation=""/>
<atomType
 name="H102"
 element="H"
 mass="1.008"
 annotation=""/>
</atomTypes>
<parameters>
</parameters>
</forcefield>
</ffml>

$$$$
Imatinib
  DSViewer          3D                             0

 68 72  0  0  0  0  0  0  0  0999 V2000
   -8.5799  -40.7760    2.6054 N   0  0
   -7.7155  -40.3396    3.4352 C   0  0
   -6.6443  -39.4422    2.9949 C   0  0
   -6.5821  -39.0861    1.7172 C   0  0
   -7.5831  -39.6011    0.7970 C   0  0
   -8.5367  -40.4139    1.2463 C   0  0
   -7.5352  -39.2246   -0.6046 C   0  0
   -6.6192  -38.4479   -1.0123 N   0  0
   -6.5429  -38.0630   -2.3580 C   0  0
   -7.4011  -38.4930   -3.1986 N   0  0
   -8.4342  -39.3518   -2.8081 C   0  0
   -8.5237  -39.7275   -1.5386 C   0  0
   -5.5259  -37.1997   -2.8243 N   0  0
   -4.4860  -36.6266   -2.0363 C   0  0
   -4.3671  -36.8291   -0.7169 C   0  0
   -3.2559  -36.2048    0.0377 C   0  0
   -2.3849  -35.4406   -0.6238 C   0  0
   -2.5154  -35.2200   -2.0537 C   0  0
   -3.5129  -35.7823   -2.7253 C   0  0
   -3.1323  -36.4226    1.4643 N   0  0
   -2.0710  -36.0138    2.1984 C   0  0
   -2.0076  -36.2451    3.6457 C   0  0
   -1.1074  -35.4353    1.6835 O   0  0
   -3.0129  -36.8113    4.3125 C   0  0
   -2.8996  -37.0098    5.7737 C   0  0
   -1.7991  -36.6308    6.4313 C   0  0
   -0.6957  -36.0213    5.6731 C   0  0
   -0.8014  -35.8350    4.3611 C   0  0
   -1.7267  -36.8671    7.9568 C   0  0
   -0.4351  -36.5074    8.6459 N   0  0
   -0.5149  -36.9947   10.0416 C   0  0
    0.8136  -36.7127   10.7786 C   0  0
    1.0826  -35.2655   10.7864 N   0  0
    1.1583  -34.7633    9.4033 C   0  0
   -0.1854  -35.0368    8.6874 C   0  0
    2.3561  -35.0092   11.4759 C   0  0
   -3.6422  -35.5493   -4.2017 C   0  0
   -7.7741  -40.6371    4.4821 H   0  0
   -5.9074  -39.0716    3.7074 H   0  0
   -5.7950  -38.4196    1.3646 H   0  0
   -9.2880  -40.8010    0.5579 H   0  0
   -9.1588  -39.7090   -3.5398 H   0  0
   -9.3184  -40.3958   -1.2071 H   0  0
   -5.5377  -36.9536   -3.8656 H   0  0
   -5.0914  -37.4559   -0.1967 H   0  0
   -1.5618  -34.9742   -0.0824 H   0  0
   -1.7934  -34.5921   -2.5757 H   0  0
   -3.9253  -36.9360    1.9667 H   0  0
   -3.9129  -37.1261    3.7844 H   0  0
   -3.7225  -37.4702    6.3204 H   0  0
    0.2151  -35.7202    6.1907 H   0  0
    0.0197  -35.3720    3.8138 H   0  0
   -2.5200  -36.2791    8.4182 H   0  0
   -1.9093  -37.9270    8.1340 H   0  0
   -1.3283  -36.4830   10.5561 H   0  0
   -0.7047  -38.0680   10.0384 H   0  0
    0.7412  -37.0726   11.8050 H   0  0
    1.6268  -37.2290   10.2685 H   0  0
    1.3529  -33.6909    9.4154 H   0  0
    1.9633  -35.2732    8.8742 H   0  0
   -0.9931  -34.5462    9.2306 H   0  0
   -0.1414  -34.6468    7.6705 H   0  0
    2.5570  -33.9379   11.4826 H   0  0
    3.1622  -35.5262   10.9554 H   0  0
    2.2942  -35.3731   12.5015 H   0  0
   -4.5125  -36.0855   -4.5798 H   0  0
   -2.7462  -35.9100   -4.7068 H   0  0
   -3.7620  -34.4828   -4.3927 H   0  0
  1  2  2  0  0  0
  2  3  1  0  0  0
  3  4  2  0  0  0
  4  5  1  0  0  0
  5  6  2  0  0  0
  6  1  1  0  0  0
  5  7  1  0  0  0
  7  8  2  0  0  0
  8  9  1  0  0  0
  9 10  2  0  0  0
 10 11  1  0  0  0
 11 12  2  0  0  0
 12  7  1  0  0  0
  9 13  1  0  0  0
 13 14  1  0  0  0
 14 15  2  0  0  0
 15 16  1  0  0  0
 16 17  2  0  0  0
 17 18  1  0  0  0
 18 19  2  0  0  0
 19 14  1  0  0  0
 16 20  1  0  0  0
 20 21  1  0  0  0
 21 22  1  0  0  0
 21 23  2  0  0  0
 22 24  2  0  0  0
 24 25  1  0  0  0
 25 26  2  0  0  0
 26 27  1  0  0  0
 27 28  2  0  0  0
 28 22  1  0  0  0
 26 29  1  0  0  0
 29 30  1  0  0  0
 30 31  1  0  0  0
 31 32  1  0  0  0
 32 33  1  0  0  0
 33 34  1  0  0  0
 34 35  1  0  0  0
 35 30  1  0  0  0
 33 36  1  0  0  0
 19 37  1  0  0  0
  2 38  1  0  0  0
  3 39  1  0  0  0
  4 40  1  0  0  0
  6 41  1  0  0  0
 11 42  1  0  0  0
 12 43  1  0  0  0
 13 44  1  0  0  0
 15 45  1  0  0  0
 17 46  1  0  0  0
 18 47  1  0  0  0
 20 48  1  0  0  0
 24 49  1  0  0  0
 25 50  1  0  0  0
 27 51  1  0  0  0
 28 52  1  0  0  0
 29 53  1  0  0  0
 29 54  1  0  0  0
 31 55  1  0  0  0
 31 56  1  0  0  0
 32 57  1  0  0  0
 32 58  1  0  0  0
 34 59  1  0  0  0
 34 60  1  0  0  0
 35 61  1  0  0  0
 35 62  1  0  0  0
 36 63  1  0  0  0
 36 64  1  0  0  0
 36 65  1  0  0  0
 37 66  1  0  0  0
 37 67  1  0  0  0
 37 68  1  0  0  0
M  END
> <Forcefield>
MMFF

> <Chemical Formula>
C29H31N7O

> <ForcefieldBase>
MMFF

> <ForcefieldFFML>
<?xml version="1.0" encoding="UTF-8"?>
<!DOCTYPE ffml SYSTEM "Ffml.dtd">
<ffml version="1.0">
<forcefield name="Imatinib-MMFF" derivedFrom="MMFF" base="MMFF">
<atomTypes>
<atomType
 name="N100"
 element="N"
 mass="14.007"
 annotation=""/>
<atomType
 name="C101"
 element="C"
 mass="12.011"
 annotation=""/>
<atomType
 name="O102"
 element="O"
 mass="16"
 annotation=""/>
<atomType
 name="H103"
 element="H"
 mass="1.008"
 annotation=""/>
</atomTypes>
<parameters>
</parameters>
</forcefield>
</ffml>

$$$$
alpha-HNJNAc
  DSViewer          3D                             0

 34 34  0  0  0  0  0  0  0  0999 V2000
   -3.3270  -37.3761    4.0820 C   0  0  2  0  0  0
   -2.1800  -36.6231    4.7998 C   0  0  2  0  0  0
   -0.9786  -36.5740    3.8991 N   0  0
   -1.2533  -35.8538    2.6148 C   0  0  1  0  0  0
   -2.4189  -36.5871    1.8699 C   0  0  1  0  0  0
   -3.6845  -36.6173    2.7910 C   0  0  1  0  0  0
   -1.8010  -37.3580    6.1017 C   0  0
   -4.7514  -37.3063    2.1388 O   0  0
   -4.4796  -37.4283    4.9254 O   0  0
   -2.6942  -35.8499    0.6307 N   0  0
   -1.5852  -34.3556    2.8918 C   0  0
   -2.9268  -37.3992    6.9843 O   0  0
   -3.2189  -36.3558   -0.5003 C   0  0
   -3.6148  -37.8033   -0.6597 C   0  0
   -3.3836  -35.5868   -1.4600 O   0  0
   -1.8151  -33.6650    1.6611 O   0  0
   -3.0051  -38.3881    3.8364 H   0  0
   -2.5011  -35.6082    5.0345 H   0  0
   -0.6782  -37.5758    3.6730 H   0  0
   -0.3597  -35.9017    1.9924 H   0  0
   -2.1162  -37.6064    1.6301 H   0  0
   -3.9924  -35.5998    3.0319 H   0  0
   -1.4905  -38.3757    5.8647 H   0  0
   -0.9800  -36.8311    6.5880 H   0  0
   -4.9902  -36.8142    1.2425 H   0  0
   -4.2401  -37.9313    5.8155 H   0  0
   -2.4538  -34.8073    0.6264 H   0  0
   -2.4795  -34.2937    3.5118 H   0  0
   -0.7480  -33.8920    3.4137 H   0  0
   -3.2273  -36.4199    7.2151 H   0  0
   -4.0123  -37.9636   -1.6618 H   0  0
   -4.3770  -38.0554    0.0777 H   0  0
   -2.7412  -38.4380   -0.5101 H   0  0
   -0.9548  -33.7210    1.0617 H   0  0
  1  2  1  0  0  0
  2  3  1  0  0  0
  3  4  1  0  0  0
  4  5  1  0  0  0
  5  6  1  0  0  0
  6  1  1  0  0  0
  2  7  1  0  0  0
  6  8  1  0  0  0
  1  9  1  0  0  0
  5 10  1  0  0  0
  4 11  1  0  0  0
  7 12  1  0  0  0
 10 13  1  0  0  0
 13 14  1  0  0  0
 13 15  2  0  0  0
 11 16  1  0  0  0
  1 17  1  0  0  0
  2 18  1  0  0  0
  3 19  1  0  0  0
  4 20  1  0  0  0
  5 21  1  0  0  0
  6 22  1  0  0  0
  7 23  1  0  0  0
  7 24  1  0  0  0
  8 25  1  0  0  0
  9 26  1  0  0  0
 10 27  1  0  0  0
 11 28  1  0  0  0
 11 29  1  0  0  0
 12 30  1  0  0  0
 14 31  1  0  0  0
 14 32  1  0  0  0
 14 33  1  0  0  0
 16 34  1  0  0  0
M  END
> <Clean Energy>
4.56923

> <Forcefield>
MMFF

> <Chemical Formula>
C9H18N2O5

> <ForcefieldBase>
MMFF

> <ForcefieldFFML>
<?xml version="1.0" encoding="UTF-8"?>
<!DOCTYPE ffml SYSTEM "Ffml.dtd">
<ffml version="1.0">
<forcefield name="alpha-HNJNAc-MMFF" derivedFrom="MMFF" base="MMFF">
<atomTypes>
<atomType
 name="C100"
 element="C"
 mass="12.011"
 annotation=""/>
<atomType
 name="N101"
 element="N"
 mass="14.007"
 annotation=""/>
<atomType
 name="O102"
 element="O"
 mass="16"
 annotation=""/>
<atomType
 name="H103"
 element="H"
 mass="1.008"
 annotation=""/>
</atomTypes>
<parameters>
</parameters>
</forcefield>
</ffml>

$$$$
PUGNAc type inhibitor
  DSViewer          3D                             0

 47 49  0  0  0  0  0  0  0  0999 V2000
    5.9604  -46.4066   10.2473 C   0  0  1  0  0  0
    6.2042  -45.1045   10.9996 C   0  0  1  0  0  0
    6.5255  -44.0288    9.9373 C   0  0  2  0  0  0
    7.5805  -44.5064    8.9881 C   0  0
    7.9051  -45.7225    8.8412 N   0  3
    7.3442  -46.8028    9.6181 C   0  0  2  0  0  0
    8.2962  -43.7179    8.1173 N   0  0
    9.1070  -44.5894    7.4229 C   0  0
    8.8993  -45.8410    7.8430 C   0  0
   10.0378  -44.1560    6.3855 C   0  0
   10.7930  -45.0484    5.7210 N   0  0
   11.7313  -44.7074    4.6871 C   0  0
   11.9773  -43.4402    4.3405 C   0  0
   12.9376  -43.1254    3.2835 C   0  0
   13.5772  -44.1073    2.6541 C   0  0
   13.3170  -45.4996    3.0241 C   0  0
   12.4422  -45.7845    3.9888 C   0  0
   10.0908  -42.9443    6.1414 O   0  0
    7.2529  -48.0976    8.7862 C   0  0
    5.0504  -44.6771   11.7263 O   0  0
    5.5511  -47.4465   11.1381 O   0  0
    6.8473  -42.7544   10.5516 N   0  0
    6.7787  -49.1701    9.6054 O   0  0
    7.0477  -41.6347    9.8518 C   0  0
    7.3796  -40.3635   10.5759 C   0  0
    6.9677  -41.6313    8.6183 O   0  0
    5.2151  -46.2604    9.4656 H   0  0
    7.0491  -45.2202   11.6785 H   0  0
    5.6176  -43.8789    9.3530 H   0  0
    8.0299  -46.9970   10.4428 H   0  0
    8.2362  -42.6557    8.0036 H   0  0
    9.3877  -46.7507    7.4937 H   0  0
   10.6885  -46.0814    5.9794 H   0  0
   11.4557  -42.6314    4.8522 H   0  0
   13.1290  -42.0873    3.0118 H   0  0
   14.2929  -43.8759    1.8653 H   0  0
   13.8401  -46.3055    2.5094 H   0  0
   12.2539  -46.8232    4.2604 H   0  0
    6.5637  -47.9455    7.9555 H   0  0
    8.2403  -48.3484    8.3986 H   0  0
    4.2533  -44.5242   11.0601 H   0  0
    6.3006  -47.6087   11.8555 H   0  0
    6.9279  -42.7095   11.6176 H   0  0
    7.4415  -49.3191   10.4060 H   0  0
    7.5091  -39.5569    9.8544 H   0  0
    8.3024  -40.4967   11.1406 H   0  0
    6.5688  -40.1119   11.2597 H   0  0
  1  2  1  0  0  0
  2  3  1  0  0  0
  3  4  1  0  0  0
  4  5  2  0  0  0
  5  6  1  0  0  0
  6  1  1  0  0  0
  4  7  1  0  0  0
  7  8  1  0  0  0
  8  9  2  0  0  0
  9  5  1  0  0  0
  8 10  1  0  0  0
 10 11  1  0  0  0
 11 12  1  0  0  0
 12 13  2  0  0  0
 13 14  1  0  0  0
 14 15  2  0  0  0
 15 16  1  0  0  0
 16 17  2  0  0  0
 17 12  1  0  0  0
 10 18  2  0  0  0
  6 19  1  0  0  0
  2 20  1  0  0  0
  1 21  1  0  0  0
  3 22  1  0  0  0
 19 23  1  0  0  0
 22 24  1  0  0  0
 24 25  1  0  0  0
 24 26  2  0  0  0
  1 27  1  0  0  0
  2 28  1  0  0  0
  3 29  1  0  0  0
  6 30  1  0  0  0
  7 31  1  0  0  0
  9 32  1  0  0  0
 11 33  1  0  0  0
 13 34  1  0  0  0
 14 35  1  0  0  0
 15 36  1  0  0  0
 16 37  1  0  0  0
 17 38  1  0  0  0
 19 39  1  0  0  0
 19 40  1  0  0  0
 20 41  1  0  0  0
 21 42  1  0  0  0
 22 43  1  0  0  0
 23 44  1  0  0  0
 25 45  1  0  0  0
 25 46  1  0  0  0
 25 47  1  0  0  0
M  CHG  1   5   1
M  END
> <Forcefield>
MMFF

> <Chemical Formula>
C17H21N4O5+

> <ForcefieldBase>
MMFF

> <ForcefieldFFML>
<?xml version="1.0" encoding="UTF-8"?>
<!DOCTYPE ffml SYSTEM "Ffml.dtd">
<ffml version="1.0">
<forcefield name="PUGNAc type inhibitor-MMFF" derivedFrom="MMFF" base="MMFF">
<atomTypes>
<atomType
 name="C100"
 element="C"
 mass="12.011"
 annotation=""/>
<atomType
 name="N101"
 element="N"
 mass="14.007"
 annotation=""/>
<atomType
 name="O102"
 element="O"
 mass="16"
 annotation=""/>
<atomType
 name="H103"
 element="H"
 mass="1.008"
 annotation=""/>
</atomTypes>
<parameters>
</parameters>
</forcefield>
</ffml>

$$$$
iminocyclitol type inhibitor
  DSViewer          3D                             0

 52 53  0  0  0  0  0  0  0  0999 V2000
    9.5572  -41.4807    7.2672 C   0  0  2  0  0  0
    9.3977  -40.0132    6.7807 C   0  0  1  0  0  0
   10.8130  -39.8959    6.2797 C   0  0  1  0  0  0
   10.8253  -41.0499    5.2606 C   0  0  2  0  0  0
   10.0886  -42.1465    6.0047 N   0  0
    8.2514  -42.0948    7.8609 C   0  0
    8.4456  -39.8804    5.7226 O   0  0
   11.1756  -38.6443    5.6913 O   0  0
   12.2671  -41.3272    4.7499 C   0  0
   10.6797  -43.5510    5.9810 C   0  0
    9.7702  -44.6728    6.5635 C   0  0
   10.4101  -46.0550    6.3594 C   0  0
    9.5963  -47.1253    7.0540 C   0  0
    9.8675  -48.4097    6.8157 C   0  0
    9.1028  -49.4607    7.4871 C   0  0
    8.1385  -49.1406    8.3479 C   0  0
    7.8392  -47.7331    8.6215 C   0  0
    8.5261  -46.7726    8.0072 C   0  0
    6.7585  -47.3897    9.6074 C   0  0
    7.3601  -46.9032   10.7500 F   0  0
    5.9774  -46.3707    9.1049 F   0  0
    6.0092  -48.5057    9.9209 F   0  0
    7.7890  -41.4132    9.1177 C   0  0
    8.4120  -40.4565    9.5920 O   0  0
    6.7104  -41.8779    9.7412 N   0  0
    6.2587  -41.2679   10.9554 C   0  0
   12.2847  -42.3645    3.7630 O   0  0
   10.3347  -41.5117    8.0306 H   0  0
    9.1954  -39.3276    7.6035 H   0  0
   11.5027  -40.1254    7.0919 H   0  0
   10.2160  -40.7530    4.4070 H   0  0
    7.4615  -42.0147    7.1140 H   0  0
    8.4348  -43.1455    8.0853 H   0  0
    8.7514  -40.4587    4.9013 H   0  0
   10.5598  -38.4553    4.8621 H   0  0
   12.6688  -40.4141    4.3108 H   0  0
   12.8889  -41.6298    5.5925 H   0  0
   10.9020  -43.8039    4.9443 H   0  0
   11.6043  -43.5354    6.5581 H   0  0
    9.6274  -44.4992    7.6300 H   0  0
    8.8046  -44.6481    6.0583 H   0  0
   10.4554  -46.2750    5.2928 H   0  0
   11.4188  -46.0473    6.7725 H   0  0
   10.6615  -48.6768    6.1183 H   0  0
    9.3229  -50.5084    7.2822 H   0  0
    7.5722  -49.9258    8.8488 H   0  0
    8.2982  -45.7258    8.2082 H   0  0
    6.1775  -42.7115    9.3337 H   0  0
    5.3680  -41.7847   11.3127 H   0  0
    6.0206  -40.2206   10.7697 H   0  0
    7.0432  -41.3336   11.7093 H   0  0
   11.9040  -43.2504    4.1787 H   0  0
  1  2  1  0  0  0
  2  3  1  0  0  0
  3  4  1  0  0  0
  4  5  1  0  0  0
  5  1  1  0  0  0
  1  6  1  0  0  0
  2  7  1  0  0  0
  3  8  1  0  0  0
  4  9  1  0  0  0
  5 10  1  0  0  0
 10 11  1  0  0  0
 11 12  1  0  0  0
 12 13  1  0  0  0
 13 14  2  0  0  0
 14 15  1  0  0  0
 15 16  2  0  0  0
 16 17  1  0  0  0
 17 18  2  0  0  0
 18 13  1  0  0  0
 17 19  1  0  0  0
 19 20  1  0  0  0
 19 21  1  0  0  0
 19 22  1  0  0  0
  6 23  1  0  0  0
 23 24  2  0  0  0
 23 25  1  0  0  0
 25 26  1  0  0  0
  9 27  1  0  0  0
  1 28  1  0  0  0
  2 29  1  0  0  0
  3 30  1  0  0  0
  4 31  1  0  0  0
  6 32  1  0  0  0
  6 33  1  0  0  0
  7 34  1  0  0  0
  8 35  1  0  0  0
  9 36  1  0  0  0
  9 37  1  0  0  0
 10 38  1  0  0  0
 10 39  1  0  0  0
 11 40  1  0  0  0
 11 41  1  0  0  0
 12 42  1  0  0  0
 12 43  1  0  0  0
 14 44  1  0  0  0
 15 45  1  0  0  0
 16 46  1  0  0  0
 18 47  1  0  0  0
 25 48  1  0  0  0
 26 49  1  0  0  0
 26 50  1  0  0  0
 26 51  1  0  0  0
 27 52  1  0  0  0
M  END
> <Forcefield>
MMFF

> <Chemical Formula>
C18H25F3N2O4

> <ForcefieldBase>
MMFF

> <ForcefieldFFML>
<?xml version="1.0" encoding="UTF-8"?>
<!DOCTYPE ffml SYSTEM "Ffml.dtd">
<ffml version="1.0">
<forcefield name="iminocyclitol type inhibitor-MMFF" derivedFrom="MMFF" base="MMFF">
<atomTypes>
<atomType
 name="C100"
 element="C"
 mass="12.011"
 annotation=""/>
<atomType
 name="N101"
 element="N"
 mass="14.007"
 annotation=""/>
<atomType
 name="O102"
 element="O"
 mass="16"
 annotation=""/>
<atomType
 name="F103"
 element="F"
 mass="18.998"
 annotation=""/>
<atomType
 name="H104"
 element="H"
 mass="1.008"
 annotation=""/>
</atomTypes>
<parameters>
</parameters>
</forcefield>
</ffml>

$$$$
N-valeryl PUGNAc
  DSViewer          3D                             0

 53 54  0  0  0  0  0  0  0  0999 V2000
    5.6268  -44.1316   10.7459 C   0  0  1  0  0  0
    5.8284  -42.8321   11.4990 C   0  0  1  0  0  0
    6.1176  -41.7425   10.4356 C   0  0  2  0  0  0
    7.2122  -42.0566    9.6117 O   0  0
    7.5292  -43.3496    9.2789 C   0  0
    6.9656  -44.4996   10.0904 C   0  0  2  0  0  0
    6.3448  -40.3848   11.1171 C   0  0
    5.2521  -45.1909   11.6285 O   0  0
    6.8434  -45.7198    9.3189 N   0  0
    4.6405  -42.4646   12.2028 O   0  0
    8.3551  -43.5621    8.3442 N   0  0
    7.8945  -46.3865    8.8467 C   0  0
    7.6785  -47.6409    8.0581 C   0  0
    9.0455  -45.9728    9.0435 O   0  0
    9.0273  -48.1712    7.5484 C   0  0
    8.7955  -49.4657    6.7495 C   0  0
   10.1419  -49.9878    6.2177 C   0  0
    8.8802  -42.5537    7.6720 O   0  0
    6.5503  -39.3839   10.1183 O   0  0
    9.7789  -43.0408    6.7300 C   0  0
   10.4799  -42.1262    5.9036 N   0  0
    9.9571  -44.2659    6.6471 O   0  0
   11.4379  -42.4835    4.9135 C   0  0
   12.0442  -41.5178    4.2320 C   0  0
   13.0387  -41.8416    3.2040 C   0  0
   13.3399  -43.1134    2.9473 C   0  0
   12.6781  -44.1850    3.6916 C   0  0
   11.7742  -43.8904    4.6267 C   0  0
    4.8630  -44.0006    9.9794 H   0  0
    6.6668  -42.9200   12.1899 H   0  0
    5.2363  -41.6538    9.8004 H   0  0
    7.6722  -44.6995   10.8960 H   0  0
    5.4712  -40.1274   11.7161 H   0  0
    7.2228  -40.4428   11.7604 H   0  0
    6.0066  -45.3340   12.3446 H   0  0
    5.8642  -46.1024    9.1197 H   0  0
    3.8525  -42.3412   11.5199 H   0  0
    7.2108  -48.3925    8.6941 H   0  0
    7.0290  -47.4276    7.2091 H   0  0
    9.4923  -47.4245    6.9048 H   0  0
    9.6806  -48.3786    8.3960 H   0  0
    8.3451  -50.2171    7.3980 H   0  0
    8.1288  -49.2611    5.9118 H   0  0
    9.9785  -50.9048    5.6516 H   0  0
   10.8091  -50.1923    7.0550 H   0  0
   10.5929  -49.2366    5.5693 H   0  0
    7.3914  -39.6324    9.5410 H   0  0
   10.2722  -41.0848    6.0347 H   0  0
   11.8004  -40.4757    4.4387 H   0  0
   13.5310  -41.0421    2.6504 H   0  0
   14.0788  -43.3556    2.1835 H   0  0
   12.9242  -45.2258    3.4814 H   0  0
   11.2830  -44.6908    5.1799 H   0  0
  1  2  1  0  0  0
  2  3  1  0  0  0
  3  4  1  0  0  0
  4  5  1  0  0  0
  5  6  1  0  0  0
  6  1  1  0  0  0
  3  7  1  0  0  0
  1  8  1  0  0  0
  6  9  1  0  0  0
  2 10  1  0  0  0
  5 11  2  0  0  0
  9 12  1  0  0  0
 12 13  1  0  0  0
 12 14  2  0  0  0
 13 15  1  0  0  0
 15 16  1  0  0  0
 16 17  1  0  0  0
 11 18  1  0  0  0
  7 19  1  0  0  0
 18 20  1  0  0  0
 20 21  1  0  0  0
 20 22  2  0  0  0
 21 23  1  0  0  0
 23 24  2  0  0  0
 24 25  1  0  0  0
 25 26  2  0  0  0
 26 27  1  0  0  0
 27 28  2  0  0  0
 28 23  1  0  0  0
  1 29  1  0  0  0
  2 30  1  0  0  0
  3 31  1  0  0  0
  6 32  1  0  0  0
  7 33  1  0  0  0
  7 34  1  0  0  0
  8 35  1  0  0  0
  9 36  1  0  0  0
 10 37  1  0  0  0
 13 38  1  0  0  0
 13 39  1  0  0  0
 15 40  1  0  0  0
 15 41  1  0  0  0
 16 42  1  0  0  0
 16 43  1  0  0  0
 17 44  1  0  0  0
 17 45  1  0  0  0
 17 46  1  0  0  0
 19 47  1  0  0  0
 21 48  1  0  0  0
 24 49  1  0  0  0
 25 50  1  0  0  0
 26 51  1  0  0  0
 27 52  1  0  0  0
 28 53  1  0  0  0
M  END
> <Ki>
40nM

> <Forcefield>
MMFF

> <Chemical Formula>
C18H25N3O7

> <ForcefieldBase>
MMFF

> <ForcefieldFFML>
<?xml version="1.0" encoding="UTF-8"?>
<!DOCTYPE ffml SYSTEM "Ffml.dtd">
<ffml version="1.0">
<forcefield name="N-valeryl PUGNAc-MMFF" derivedFrom="MMFF" base="MMFF">
<atomTypes>
<atomType
 name="C100"
 element="C"
 mass="12.011"
 annotation=""/>
<atomType
 name="O101"
 element="O"
 mass="16"
 annotation=""/>
<atomType
 name="N102"
 element="N"
 mass="14.007"
 annotation=""/>
<atomType
 name="H103"
 element="H"
 mass="1.008"
 annotation=""/>
</atomTypes>
<parameters>
</parameters>
</forcefield>
</ffml>

$$$$
EtBuPUG
  DSViewer          3D                             0

 56 57  0  0  0  0  0  0  0  0999 V2000
    5.8247  -44.3393   10.7023 C   0  0  1  0  0  0
    5.8831  -42.9600   11.3408 C   0  0  1  0  0  0
    6.1579  -41.9231   10.2337 C   0  0  2  0  0  0
    7.3145  -42.2122    9.4922 O   0  0
    7.7149  -43.5016    9.2412 C   0  0
    7.2316  -44.6441   10.1504 C   0  0  2  0  0  0
    6.2650  -40.5200   10.8599 C   0  0
    5.4989  -45.3271   11.6805 O   0  0
    7.2824  -46.0213    9.6055 N   0  0
    4.6359  -42.6336   11.9586 O   0  0
    8.5476  -43.6973    8.3029 N   0  0
    8.2892  -46.5581    8.8941 C   0  0
    8.2453  -48.0174    8.5255 C   0  0
    9.2882  -45.9062    8.5899 O   0  0
    8.8706  -48.1769    7.0773 C   0  0
    8.9878  -42.6813    7.5750 O   0  0
    6.4794  -39.5497    9.8351 O   0  0
    9.9056  -43.1549    6.6384 C   0  0
   10.5506  -42.2323    5.7697 N   0  0
   10.1532  -44.3645    6.6025 O   0  0
   11.5199  -42.5881    4.7877 C   0  0
   12.1093  -41.6173    4.0889 C   0  0
   13.1131  -41.9403    3.0697 C   0  0
   13.4415  -43.2089    2.8345 C   0  0
   12.7997  -44.2816    3.5951 C   0  0
   11.8888  -43.9893    4.5221 C   0  0
    6.8032  -48.5935    8.8134 C   0  0
    9.1321  -49.6282    6.6005 C   0  0
    6.6912  -50.1416    8.7704 C   0  0
    5.0919  -44.3511    9.8954 H   0  0
    6.6817  -42.9295   12.0820 H   0  0
    5.3087  -41.9247    9.5503 H   0  0
    7.8975  -44.6403   11.0134 H   0  0
    5.3411  -40.2887   11.3899 H   0  0
    7.1008  -40.4986   11.5592 H   0  0
    6.2310  -45.3297   12.4332 H   0  0
    6.4368  -46.6486    9.7964 H   0  0
    3.8744  -42.6397   11.2356 H   0  0
    8.9224  -48.5278    9.2105 H   0  0
    8.1870  -47.7118    6.3670 H   0  0
    9.8229  -47.6468    7.0662 H   0  0
    7.3695  -39.7708    9.3237 H   0  0
   10.2899  -41.1984    5.8597 H   0  0
   11.8432  -40.5770    4.2763 H   0  0
   13.5910  -41.1405    2.5040 H   0  0
   14.1874  -43.4481    2.0765 H   0  0
   13.0671  -45.3207    3.4030 H   0  0
   11.4139  -44.7913    5.0872 H   0  0
    6.4986  -48.2606    9.8056 H   0  0
    6.1215  -48.1850    8.0674 H   0  0
    9.5598  -49.6103    5.5981 H   0  0
    8.1926  -50.1807    6.5842 H   0  0
    9.8281  -50.1156    7.2832 H   0  0
    5.6636  -50.4380    8.9805 H   0  0
    7.3542  -50.5752    9.5192 H   0  0
    6.9771  -50.4997    7.7814 H   0  0
  1  2  1  0  0  0
  2  3  1  0  0  0
  3  4  1  0  0  0
  4  5  1  0  0  0
  5  6  1  0  0  0
  6  1  1  0  0  0
  3  7  1  0  0  0
  1  8  1  0  0  0
  6  9  1  0  0  0
  2 10  1  0  0  0
  5 11  2  0  0  0
  9 12  1  0  0  0
 12 13  1  0  0  0
 12 14  2  0  0  0
 13 15  1  0  0  0
 11 16  1  0  0  0
  7 17  1  0  0  0
 16 18  1  0  0  0
 18 19  1  0  0  0
 18 20  2  0  0  0
 19 21  1  0  0  0
 21 22  2  0  0  0
 22 23  1  0  0  0
 23 24  2  0  0  0
 24 25  1  0  0  0
 25 26  2  0  0  0
 26 21  1  0  0  0
 13 27  1  0  0  0
 15 28  1  0  0  0
 27 29  1  0  0  0
  1 30  1  0  0  0
  2 31  1  0  0  0
  3 32  1  0  0  0
  6 33  1  0  0  0
  7 34  1  0  0  0
  7 35  1  0  0  0
  8 36  1  0  0  0
  9 37  1  0  0  0
 10 38  1  0  0  0
 13 39  1  0  0  0
 15 40  1  0  0  0
 15 41  1  0  0  0
 17 42  1  0  0  0
 19 43  1  0  0  0
 22 44  1  0  0  0
 23 45  1  0  0  0
 24 46  1  0  0  0
 25 47  1  0  0  0
 26 48  1  0  0  0
 27 49  1  0  0  0
 27 50  1  0  0  0
 28 51  1  0  0  0
 28 52  1  0  0  0
 28 53  1  0  0  0
 29 54  1  0  0  0
 29 55  1  0  0  0
 29 56  1  0  0  0
M  END
> <Ki>
3000µM

> <Forcefield>
MMFF

> <Chemical Formula>
C19H27N3O7

> <ForcefieldBase>
MMFF

> <ForcefieldFFML>
<?xml version="1.0" encoding="UTF-8"?>
<!DOCTYPE ffml SYSTEM "Ffml.dtd">
<ffml version="1.0">
<forcefield name="EtBuPUG-MMFF" derivedFrom="MMFF" base="MMFF">
<atomTypes>
<atomType
 name="C100"
 element="C"
 mass="12.011"
 annotation=""/>
<atomType
 name="O101"
 element="O"
 mass="16"
 annotation=""/>
<atomType
 name="N102"
 element="N"
 mass="14.007"
 annotation=""/>
<atomType
 name="H103"
 element="H"
 mass="1.008"
 annotation=""/>
</atomTypes>
<parameters>
</parameters>
</forcefield>
</ffml>

$$$$
LOGNAc
  DSViewer          3D                             0

 30 30  0  0  0  0  0  0  0  0999 V2000
    7.9477  -44.2904    8.2235 C   0  0  1  0  0  0
    8.2632  -42.9612    8.8756 C   0  0  1  0  0  0
    8.6387  -41.9865    7.7388 C   0  0  2  0  0  0
    9.7028  -42.4473    6.9465 O   0  0
    9.9121  -43.7808    6.7120 C   0  0
    9.2670  -44.8274    7.5967 C   0  0  2  0  0  0
    9.0775  -46.0801    6.8874 N   0  0
    7.1105  -42.4420    9.5406 O   0  0
    7.4655  -45.2201    9.1918 O   0  0
    8.9749  -40.6019    8.3135 C   0  0
   10.7144  -44.1091    5.7691 N   0  0
   11.0002  -45.3729    5.5028 O   0  0
    8.8440  -47.2428    7.4945 C   0  0
    8.6674  -48.4851    6.6746 C   0  0
    8.7701  -47.3103    8.7306 O   0  0
    9.2538  -39.7005    7.2403 O   0  0
    7.1997  -44.1497    7.4433 H   0  0
    9.0917  -43.0674    9.5759 H   0  0
    7.7671  -41.8762    7.0937 H   0  0
    9.9566  -45.0239    8.4177 H   0  0
    9.1281  -46.0688    5.8186 H   0  0
    6.3366  -42.3041    8.8444 H   0  0
    8.1971  -45.3680    9.9304 H   0  0
    8.1270  -40.2311    8.8893 H   0  0
    9.8486  -40.6788    8.9607 H   0  0
   11.4354  -45.8194    6.3477 H   0  0
    8.4863  -49.3337    7.3342 H   0  0
    9.5692  -48.6663    6.0897 H   0  0
    7.8181  -48.3601    6.0028 H   0  0
   10.0703  -40.0583    6.6853 H   0  0
  1  2  1  0  0  0
  2  3  1  0  0  0
  3  4  1  0  0  0
  4  5  1  0  0  0
  5  6  1  0  0  0
  6  1  1  0  0  0
  6  7  1  0  0  0
  2  8  1  0  0  0
  1  9  1  0  0  0
  3 10  1  0  0  0
  5 11  2  0  0  0
 11 12  1  0  0  0
  7 13  1  0  0  0
 13 14  1  0  0  0
 13 15  2  0  0  0
 10 16  1  0  0  0
  1 17  1  0  0  0
  2 18  1  0  0  0
  3 19  1  0  0  0
  6 20  1  0  0  0
  7 21  1  0  0  0
  8 22  1  0  0  0
  9 23  1  0  0  0
 10 24  1  0  0  0
 10 25  1  0  0  0
 12 26  1  0  0  0
 14 27  1  0  0  0
 14 28  1  0  0  0
 14 29  1  0  0  0
 16 30  1  0  0  0
M  END
> <Ki>
2µM

> <Forcefield>
MMFF

> <Chemical Formula>
C8H14N2O6

> <ForcefieldBase>
MMFF

> <ForcefieldFFML>
<?xml version="1.0" encoding="UTF-8"?>
<!DOCTYPE ffml SYSTEM "Ffml.dtd">
<ffml version="1.0">
<forcefield name="LOGNAc-MMFF" derivedFrom="MMFF" base="MMFF">
<atomTypes>
<atomType
 name="C100"
 element="C"
 mass="12.011"
 annotation=""/>
<atomType
 name="O101"
 element="O"
 mass="16"
 annotation=""/>
<atomType
 name="N102"
 element="N"
 mass="14.007"
 annotation=""/>
<atomType
 name="H103"
 element="H"
 mass="1.008"
 annotation=""/>
</atomTypes>
<parameters>
</parameters>
</forcefield>
</ffml>

$$$$
NButGT
  DSViewer          3D                             0

 33 34  0  0  0  0  0  0  0  0999 V2000
    7.3843  -45.7567    9.7017 C   0  0  2  0  0  0
    6.7703  -44.3219    9.7124 C   0  0  2  0  0  0
    7.7958  -43.3295    9.4044 O   0  0
    8.3181  -43.6097    8.1063 C   0  0  2  0  0  0
    9.0094  -44.9778    8.0470 C   0  0  1  0  0  0
    7.9799  -46.0574    8.3063 C   0  0  1  0  0  0
    9.5777  -42.6749    7.4754 S   0  0
   10.2111  -43.8539    6.4470 C   0  0
    9.8020  -45.0246    6.7837 N   0  0
    8.5861  -47.3506    8.2978 O   0  0
    6.3772  -46.7217   10.0104 O   0  0
    6.1878  -44.0322   11.1051 C   0  0
    5.6182  -42.7221   11.1168 O   0  0
   11.0771  -43.5658    5.2580 C   0  0
   11.3341  -42.0510    5.1679 C   0  0
   12.2283  -41.7541    3.9507 C   0  0
    8.1758  -45.8133   10.4489 H   0  0
    5.9755  -44.2633    8.9688 H   0  0
    7.4938  -43.6068    7.3932 H   0  0
    9.7214  -45.0114    8.8716 H   0  0
    7.1956  -46.0107    7.5507 H   0  0
    9.0288  -47.5240    7.3616 H   0  0
    5.9813  -46.5229   10.9624 H   0  0
    5.4162  -44.7665   11.3366 H   0  0
    6.9810  -44.0907   11.8505 H   0  0
    6.3613  -42.0147   10.8933 H   0  0
   12.0269  -44.0900    5.3644 H   0  0
   10.5746  -43.9039    4.3517 H   0  0
   10.3845  -41.5274    5.0573 H   0  0
   11.8326  -41.7125    6.0762 H   0  0
   12.4108  -40.6815    3.8863 H   0  0
   11.7303  -42.0927    3.0422 H   0  0
   13.1781  -42.2777    4.0607 H   0  0
  1  2  1  0  0  0
  2  3  1  0  0  0
  3  4  1  0  0  0
  4  5  1  0  0  0
  5  6  1  0  0  0
  6  1  1  0  0  0
  4  7  1  0  0  0
  7  8  1  0  0  0
  8  9  2  0  0  0
  9  5  1  0  0  0
  6 10  1  0  0  0
  1 11  1  0  0  0
  2 12  1  0  0  0
 12 13  1  0  0  0
  8 14  1  0  0  0
 14 15  1  0  0  0
 15 16  1  0  0  0
  1 17  1  0  0  0
  2 18  1  0  0  0
  4 19  1  0  0  0
  5 20  1  0  0  0
  6 21  1  0  0  0
 10 22  1  0  0  0
 11 23  1  0  0  0
 12 24  1  0  0  0
 12 25  1  0  0  0
 13 26  1  0  0  0
 14 27  1  0  0  0
 14 28  1  0  0  0
 15 29  1  0  0  0
 15 30  1  0  0  0
 16 31  1  0  0  0
 16 32  1  0  0  0
 16 33  1  0  0  0
M  END
> <Ki>
230nM

> <Forcefield>
MMFF

> <Chemical Formula>
C10H17NO4S

> <ForcefieldBase>
MMFF

> <ForcefieldFFML>
<?xml version="1.0" encoding="UTF-8"?>
<!DOCTYPE ffml SYSTEM "Ffml.dtd">
<ffml version="1.0">
<forcefield name="NButGT-MMFF" derivedFrom="MMFF" base="MMFF">
<atomTypes>
<atomType
 name="C100"
 element="C"
 mass="12.011"
 annotation=""/>
<atomType
 name="O101"
 element="O"
 mass="16"
 annotation=""/>
<atomType
 name="S102"
 element="S"
 mass="32.066"
 annotation=""/>
<atomType
 name="N103"
 element="N"
 mass="14.007"
 annotation=""/>
<atomType
 name="H104"
 element="H"
 mass="1.008"
 annotation=""/>
</atomTypes>
<parameters>
</parameters>
</forcefield>
</ffml>

$$$$
Butyl-PUGNAc
  DSViewer          3D                             0

 50 51  0  0  0  0  0  0  0  0999 V2000
    5.6766  -44.4207   10.6738 C   0  0  1  0  0  0
    5.8828  -43.1217   11.4257 C   0  0  1  0  0  0
    6.1740  -42.0337   10.3628 C   0  0  2  0  0  0
    7.2699  -42.3503    9.5378 O   0  0
    7.5781  -43.6424    9.2120 C   0  0
    7.0185  -44.7935   10.0163 C   0  0  2  0  0  0
    6.4059  -40.6757   11.0429 C   0  0
    5.2996  -45.4795   11.5558 O   0  0
    6.8932  -46.0112    9.2455 N   0  0
    4.6949  -42.7506   12.1295 O   0  0
    8.4104  -43.8623    8.2697 N   0  0
    7.9538  -46.6813    8.7865 C   0  0
    7.7383  -47.9358    7.9928 C   0  0
    9.0975  -46.2745    8.9995 O   0  0
    9.0953  -48.4859    7.5215 C   0  0
    8.8692  -49.7820    6.7216 C   0  0
    8.9348  -42.8533    7.5996 O   0  0
    6.6148  -39.6763   10.0434 O   0  0
    9.8331  -43.3509    6.6575 C   0  0
   10.5358  -42.4324    5.8304 N   0  0
   10.0068  -44.5695    6.5771 O   0  0
   11.4917  -42.7993    4.8432 C   0  0
   12.1028  -41.8298    4.1576 C   0  0
   13.0958  -42.1598    3.1320 C   0  0
   13.3951  -43.4315    2.8769 C   0  0
   12.7302  -44.5015    3.6230 C   0  0
   11.8278  -44.2028    4.5557 C   0  0
    4.9130  -44.2877    9.9074 H   0  0
    6.7210  -43.2117   12.1166 H   0  0
    5.2929  -41.9430    9.7275 H   0  0
    7.7249  -44.9952   10.8216 H   0  0
    5.5333  -40.4148   11.6416 H   0  0
    7.2837  -40.7360   11.6862 H   0  0
    6.0543  -45.6252   12.2712 H   0  0
    5.9146  -46.3893    9.0352 H   0  0
    3.9074  -42.6253   11.4463 H   0  0
    7.2422  -48.6793    8.6167 H   0  0
    7.1156  -47.7144    7.1259 H   0  0
    9.5868  -47.7479    6.8875 H   0  0
    9.7228  -48.6973    8.3873 H   0  0
    9.8290  -50.1745    6.3860 H   0  0
    8.2411  -49.5705    5.8561 H   0  0
    8.3771  -50.5196    7.3555 H   0  0
    7.4551  -39.9281    9.4663 H   0  0
   10.3307  -41.3902    5.9599 H   0  0
   11.8614  -40.7868    4.3622 H   0  0
   13.5904  -41.3626    2.5771 H   0  0
   14.1339  -43.6759    2.1137 H   0  0
   12.9740  -45.5433    3.4149 H   0  0
   11.3353  -45.0023    5.1092 H   0  0
  1  2  1  0  0  0
  2  3  1  0  0  0
  3  4  1  0  0  0
  4  5  1  0  0  0
  5  6  1  0  0  0
  6  1  1  0  0  0
  3  7  1  0  0  0
  1  8  1  0  0  0
  6  9  1  0  0  0
  2 10  1  0  0  0
  5 11  2  0  0  0
  9 12  1  0  0  0
 12 13  1  0  0  0
 12 14  2  0  0  0
 13 15  1  0  0  0
 15 16  1  0  0  0
 11 17  1  0  0  0
  7 18  1  0  0  0
 17 19  1  0  0  0
 19 20  1  0  0  0
 19 21  2  0  0  0
 20 22  1  0  0  0
 22 23  2  0  0  0
 23 24  1  0  0  0
 24 25  2  0  0  0
 25 26  1  0  0  0
 26 27  2  0  0  0
 27 22  1  0  0  0
  1 28  1  0  0  0
  2 29  1  0  0  0
  3 30  1  0  0  0
  6 31  1  0  0  0
  7 32  1  0  0  0
  7 33  1  0  0  0
  8 34  1  0  0  0
  9 35  1  0  0  0
 10 36  1  0  0  0
 13 37  1  0  0  0
 13 38  1  0  0  0
 15 39  1  0  0  0
 15 40  1  0  0  0
 16 41  1  0  0  0
 16 42  1  0  0  0
 16 43  1  0  0  0
 18 44  1  0  0  0
 20 45  1  0  0  0
 23 46  1  0  0  0
 24 47  1  0  0  0
 25 48  1  0  0  0
 26 49  1  0  0  0
 27 50  1  0  0  0
M  END
> <Ki>
3000µM

> <Forcefield>
MMFF

> <Chemical Formula>
C17H23N3O7

> <ForcefieldBase>
MMFF

> <ForcefieldFFML>
<?xml version="1.0" encoding="UTF-8"?>
<!DOCTYPE ffml SYSTEM "Ffml.dtd">
<ffml version="1.0">
<forcefield name="Butyl-PUGNAc-MMFF" derivedFrom="MMFF" base="MMFF">
<atomTypes>
<atomType
 name="C100"
 element="C"
 mass="12.011"
 annotation=""/>
<atomType
 name="O101"
 element="O"
 mass="16"
 annotation=""/>
<atomType
 name="N102"
 element="N"
 mass="14.007"
 annotation=""/>
<atomType
 name="H103"
 element="H"
 mass="1.008"
 annotation=""/>
</atomTypes>
<parameters>
</parameters>
</forcefield>
</ffml>

$$$$
N6-methyl-adenine
  DSViewer          3D                             0

 18 19  0  0  0  0  0  0  0  0999 V2000
    7.7025  -44.5490    8.9485 N   0  0
    7.4691  -43.1569    9.2543 C   0  0
    8.0852  -42.2243    8.6271 N   0  0
    8.9847  -42.5909    7.6440 C   0  0
    9.2136  -43.8348    7.3489 C   0  0
    8.5343  -44.8855    8.0395 C   0  0
    9.7574  -41.7988    6.8427 N   0  0
   10.4869  -42.7172    6.0211 C   0  0
   10.1552  -43.9213    6.3313 N   0  0
    8.7712  -46.2250    7.7319 N   0  0
    8.0742  -47.2572    8.4423 C   0  0
    6.7545  -42.8940   10.0342 H   0  0
    9.8065  -40.7299    6.8316 H   0  0
   11.2095  -42.4400    5.2536 H   0  0
    9.4729  -46.4823    6.9661 H   0  0
    8.3869  -48.2317    8.0675 H   0  0
    7.0007  -47.1392    8.2949 H   0  0
    8.3045  -47.1865    9.5054 H   0  0
  1  2  1  0  0  0
  2  3  2  0  0  0
  3  4  1  0  0  0
  4  5  2  0  0  0
  5  6  1  0  0  0
  6  1  2  0  0  0
  4  7  1  0  0  0
  7  8  1  0  0  0
  8  9  2  0  0  0
  9  5  1  0  0  0
  6 10  1  0  0  0
 10 11  1  0  0  0
  2 12  1  0  0  0
  7 13  1  0  0  0
  8 14  1  0  0  0
 10 15  1  0  0  0
 11 16  1  0  0  0
 11 17  1  0  0  0
 11 18  1  0  0  0
M  END
> <Ki>
300µM

> <Forcefield>
MMFF

> <Chemical Formula>
C6H7N5

> <ForcefieldBase>
MMFF

> <ForcefieldFFML>
<?xml version="1.0" encoding="UTF-8"?>
<!DOCTYPE ffml SYSTEM "Ffml.dtd">
<ffml version="1.0">
<forcefield name="N6-methyl-adenine-MMFF" derivedFrom="MMFF" base="MMFF">
<atomTypes>
<atomType
 name="N100"
 element="N"
 mass="14.007"
 annotation=""/>
<atomType
 name="C101"
 element="C"
 mass="12.011"
 annotation=""/>
<atomType
 name="H102"
 element="H"
 mass="1.008"
 annotation=""/>
</atomTypes>
<parameters>
</parameters>
</forcefield>
</ffml>

$$$$
NAG-thiazoline
  DSViewer          3D                             0

 27 28  0  0  0  0  0  0  0  0999 V2000
    8.0001  -45.4323    9.0709 C   0  0  2  0  0  0
    7.3907  -43.9953    9.0655 C   0  0  2  0  0  0
    8.4160  -43.0109    8.7330 O   0  0
    8.9243  -43.3127    7.4345 C   0  0  2  0  0  0
    9.6121  -44.6832    7.3889 C   0  0  1  0  0  0
    8.5817  -45.7553    7.6746 C   0  0  1  0  0  0
   10.1773  -42.3900    6.7741 S   0  0
   10.7971  -43.5865    5.7571 C   0  0
   10.3894  -44.7507    6.1168 N   0  0
    9.1835  -47.0508    7.6790 O   0  0
    6.9927  -46.3891    9.4029 O   0  0
    6.8217  -43.6823   10.4586 C   0  0
    6.2563  -42.3702   10.4549 O   0  0
   11.6448  -43.3177    4.5489 C   0  0
    8.7983  -45.4804    9.8116 H   0  0
    6.5894  -43.9454    8.3283 H   0  0
    8.0922  -43.3199    6.7305 H   0  0
   10.3331  -44.7066    8.2060 H   0  0
    7.7904  -45.7172    6.9260 H   0  0
    9.6160  -47.2395    6.7410 H   0  0
    6.6059  -46.1747   10.3553 H   0  0
    6.0498  -44.4104   10.7083 H   0  0
    7.6213  -43.7319   11.1978 H   0  0
    6.9997  -41.6689   10.2139 H   0  0
   11.9097  -44.2618    4.0730 H   0  0
   12.5532  -42.7961    4.8505 H   0  0
   11.0884  -42.6997    3.8443 H   0  0
  1  2  1  0  0  0
  2  3  1  0  0  0
  3  4  1  0  0  0
  4  5  1  0  0  0
  5  6  1  0  0  0
  6  1  1  0  0  0
  4  7  1  0  0  0
  7  8  1  0  0  0
  8  9  2  0  0  0
  9  5  1  0  0  0
  6 10  1  0  0  0
  1 11  1  0  0  0
  2 12  1  0  0  0
 12 13  1  0  0  0
  8 14  1  0  0  0
  1 15  1  0  0  0
  2 16  1  0  0  0
  4 17  1  0  0  0
  5 18  1  0  0  0
  6 19  1  0  0  0
 10 20  1  0  0  0
 11 21  1  0  0  0
 12 22  1  0  0  0
 12 23  1  0  0  0
 13 24  1  0  0  0
 14 25  1  0  0  0
 14 26  1  0  0  0
 14 27  1  0  0  0
M  END
> <Ki>
70nM

> <Forcefield>
MMFF

> <Chemical Formula>
C8H13NO4S

> <ForcefieldBase>
MMFF

> <ForcefieldFFML>
<?xml version="1.0" encoding="UTF-8"?>
<!DOCTYPE ffml SYSTEM "Ffml.dtd">
<ffml version="1.0">
<forcefield name="NAG-thiazoline-MMFF" derivedFrom="MMFF" base="MMFF">
<atomTypes>
<atomType
 name="C100"
 element="C"
 mass="12.011"
 annotation=""/>
<atomType
 name="O101"
 element="O"
 mass="16"
 annotation=""/>
<atomType
 name="S102"
 element="S"
 mass="32.066"
 annotation=""/>
<atomType
 name="N103"
 element="N"
 mass="14.007"
 annotation=""/>
<atomType
 name="H104"
 element="H"
 mass="1.008"
 annotation=""/>
</atomTypes>
<parameters>
</parameters>
</forcefield>
</ffml>

$$$$
TMG-chitotriomycin
  DSViewer          3D                             0

116119  0  0  0  0  0  0  0  0999 V2000
    6.3160  -41.0335   10.2322 O   0  0
    4.7224  -41.3073   11.9343 O   0  0
    8.4796  -43.8050    9.0647 O   0  0
    8.3968  -46.2391    8.9882 O   0  0
    4.0288  -37.2384   12.6485 O   0  0
   10.8345  -46.2270    5.9568 O   0  0
    3.0612  -39.1418   14.3724 O   0  0
   11.7273  -47.8339    4.4841 O   0  0
    5.1220  -43.6014   11.4589 O   0  0
    8.8717  -48.9278    8.4367 O   0  0
   13.9063  -46.6808    1.5905 O   0  0
    3.6822  -43.2048   13.7322 O   0  0
    9.5228  -41.4537    7.7584 O   0  0
   11.4145  -44.7724    4.2230 O   0  0
   10.5774  -43.4876    6.0528 O   0  0
   14.7918  -44.6091    0.9346 O   0  0
   14.3720  -49.4439    1.6163 O   0  0
    7.2022  -47.5873   10.7794 O   0  0
    9.7457  -51.0344    7.6453 O   0  0
   13.7889  -42.2959    1.2495 O   0  0
    6.3344  -37.9684   10.7514 N   0  3
    5.7378  -45.9893   10.2391 N   0  0
   10.0149  -49.7966    5.7845 N   0  0
   13.3585  -43.3387    3.1796 N   0  0
    5.2417  -38.9691   11.2743 C   0  0  1  0  0  0
    5.7836  -40.4737   11.4693 C   0  0  2  0  0  0
    4.6458  -38.5228   12.6745 C   0  0  2  0  0  0
    6.9390  -42.3828   10.3000 C   0  0  1  0  0  0
    3.5879  -39.5193   13.1049 C   0  0  1  0  0  0
    4.1977  -40.9041   13.1951 C   0  0  1  0  0  0
    5.9315  -43.5855   10.2980 C   0  0  1  0  0  0
    6.7065  -44.9149   10.2567 C   0  0  2  0  0  0
    7.7631  -42.5418    9.0381 C   0  0  1  0  0  0
    7.6169  -44.9487    8.9871 C   0  0  1  0  0  0
    9.4918  -46.6361    7.9767 C   0  0  1  0  0  0
    7.4808  -37.8944   11.6855 C   0  0
    5.8101  -36.6060   10.5678 C   0  0
    6.8435  -38.3472    9.4328 C   0  0
    9.1060  -48.0134    7.3649 C   0  0  1  0  0  0
   10.2973  -48.5150    6.4419 C   0  0  2  0  0  0
    9.7933  -45.6840    6.7610 C   0  0  1  0  0  0
   10.5535  -47.4525    5.3256 C   0  0  1  0  0  0
    3.1139  -41.8980   13.6317 C   0  0
    8.7701  -41.3789    8.9681 C   0  0
   12.1512  -46.9171    3.3286 C   0  0  1  0  0  0
   12.5274  -45.4682    3.7619 C   0  0  1  0  0  0
   13.4443  -47.5038    2.7026 C   0  0  1  0  0  0
   10.3757  -44.3297    7.1796 C   0  0
   13.0392  -44.6471    2.6169 C   0  0  2  0  0  0
   14.2722  -45.3541    2.0376 C   0  0  1  0  0  0
    6.0425  -47.2569   10.5079 C   0  0
   13.1699  -48.9204    2.1881 C   0  0
    9.7669  -50.9551    6.4129 C   0  0
    4.9585  -48.2934   10.4793 C   0  0
    9.5143  -52.1897    5.5951 C   0  0
   13.7032  -42.2599    2.4802 C   0  0
   13.9937  -40.9796    3.2139 C   0  0
    4.7355  -36.5157   12.3643 H   0  0
    3.8344  -39.1266   15.0828 H   0  0
    5.7313  -43.6861   12.3099 H   0  0
    9.7434  -49.0213    9.0145 H   0  0
    4.0663  -43.4927   12.7983 H   0  0
   10.0455  -42.3638    7.7265 H   0  0
   10.6955  -44.7160    3.4598 H   0  0
   11.2455  -43.9480    5.3863 H   0  0
   15.6392  -45.0960    0.5508 H   0  0
   14.6783  -48.8300    0.8214 H   0  0
    4.7228  -45.7524    9.9973 H   0  0
   10.0061  -49.8074    4.7145 H   0  0
   13.3113  -43.2382    4.2439 H   0  0
    4.4275  -38.9922   10.5501 H   0  0
    6.5754  -40.4656   12.2183 H   0  0
    5.4467  -38.5157   13.4138 H   0  0
    7.5871  -42.4462   11.1741 H   0  0
    2.7830  -39.5285   12.3699 H   0  0
    4.9993  -40.8975   13.9336 H   0  0
    5.2929  -43.5160    9.4174 H   0  0
    7.3263  -45.0007   11.1493 H   0  0
    7.1082  -42.5112    8.1674 H   0  0
    7.0022  -44.8885    8.0891 H   0  0
   10.4210  -46.7691    8.5307 H   0  0
    8.2212  -37.1945   11.2981 H   0  0
    7.9324  -38.8813   11.7863 H   0  0
    7.1340  -37.5526   12.6608 H   0  0
    6.6061  -35.9556   10.2053 H   0  0
    5.4380  -36.2279   11.5200 H   0  0
    4.9973  -36.6237    9.8417 H   0  0
    7.5960  -37.6267    9.1126 H   0  0
    6.0229  -38.3579    8.7153 H   0  0
    7.2912  -39.3395    9.4869 H   0  0
    8.1998  -47.9083    6.7685 H   0  0
   11.1974  -48.6175    7.0480 H   0  0
    8.8929  -45.5386    6.1640 H   0  0
    9.6666  -47.3518    4.6999 H   0  0
    2.3104  -41.9066   12.8953 H   0  0
    2.7157  -41.5991   14.6013 H   0  0
    9.4487  -41.4382    9.8189 H   0  0
    8.2302  -40.4325    8.9985 H   0  0
   11.3619  -46.8831    2.5777 H   0  0
   13.2825  -45.5079    4.5471 H   0  0
   14.2230  -47.5449    3.4642 H   0  0
   11.3316  -44.4924    7.6775 H   0  0
    9.6849  -43.8431    7.8681 H   0  0
   12.2691  -44.5488    1.8519 H   0  0
   15.0372  -45.4334    2.8100 H   0  0
   12.3871  -48.8896    1.4302 H   0  0
   12.8510  -49.5550    3.0149 H   0  0
    4.0101  -47.8210   10.2234 H   0  0
    4.8774  -48.7622   11.4600 H   0  0
    5.1992  -49.0511    9.7336 H   0  0
    9.5699  -51.9416    4.5352 H   0  0
    8.5235  -52.5817    5.8245 H   0  0
   10.2662  -52.9427    5.8313 H   0  0
   13.8678  -41.1374    4.2850 H   0  0
   13.3056  -40.2038    2.8781 H   0  0
   15.0185  -40.6685    3.0110 H   0  0
 26  1  1  0  0  0
 28  1  1  0  0  0
  2 26  1  0  0  0
  2 30  1  0  0  0
  3 33  1  0  0  0
  3 34  1  0  0  0
 34  4  1  0  0  0
 35  4  1  0  0  0
 27  5  1  0  0  0
  6 41  1  0  0  0
  6 42  1  0  0  0
 29  7  1  0  0  0
 42  8  1  0  0  0
 45  8  1  0  0  0
 31  9  1  0  0  0
 39 10  1  0  0  0
 11 47  1  0  0  0
 11 50  1  0  0  0
 12 43  1  0  0  0
 13 44  1  0  0  0
 46 14  1  0  0  0
 15 48  1  0  0  0
 50 16  1  0  0  0
 17 52  1  0  0  0
 18 51  2  0  0  0
 19 53  2  0  0  0
 20 56  2  0  0  0
 25 21  1  0  0  0
 21 36  1  0  0  0
 21 37  1  0  0  0
 21 38  1  0  0  0
 32 22  1  0  0  0
 22 51  1  0  0  0
 40 23  1  0  0  0
 23 53  1  0  0  0
 49 24  1  0  0  0
 24 56  1  0  0  0
 25 26  1  0  0  0
 25 27  1  0  0  0
 27 29  1  0  0  0
 28 31  1  0  0  0
 28 33  1  0  0  0
 29 30  1  0  0  0
 30 43  1  0  0  0
 31 32  1  0  0  0
 32 34  1  0  0  0
 33 44  1  0  0  0
 35 39  1  0  0  0
 35 41  1  0  0  0
 39 40  1  0  0  0
 40 42  1  0  0  0
 41 48  1  0  0  0
 45 46  1  0  0  0
 45 47  1  0  0  0
 46 49  1  0  0  0
 47 52  1  0  0  0
 49 50  1  0  0  0
 51 54  1  0  0  0
 53 55  1  0  0  0
 56 57  1  0  0  0
  5 58  1  0  0  0
  7 59  1  0  0  0
  9 60  1  0  0  0
 10 61  1  0  0  0
 12 62  1  0  0  0
 13 63  1  0  0  0
 14 64  1  0  0  0
 15 65  1  0  0  0
 16 66  1  0  0  0
 17 67  1  0  0  0
 22 68  1  0  0  0
 23 69  1  0  0  0
 24 70  1  0  0  0
 25 71  1  0  0  0
 26 72  1  0  0  0
 27 73  1  0  0  0
 28 74  1  0  0  0
 29 75  1  0  0  0
 30 76  1  0  0  0
 31 77  1  0  0  0
 32 78  1  0  0  0
 33 79  1  0  0  0
 34 80  1  0  0  0
 35 81  1  0  0  0
 36 82  1  0  0  0
 36 83  1  0  0  0
 36 84  1  0  0  0
 37 85  1  0  0  0
 37 86  1  0  0  0
 37 87  1  0  0  0
 38 88  1  0  0  0
 38 89  1  0  0  0
 38 90  1  0  0  0
 39 91  1  0  0  0
 40 92  1  0  0  0
 41 93  1  0  0  0
 42 94  1  0  0  0
 43 95  1  0  0  0
 43 96  1  0  0  0
 44 97  1  0  0  0
 44 98  1  0  0  0
 45 99  1  0  0  0
 46100  1  0  0  0
 47101  1  0  0  0
 48102  1  0  0  0
 48103  1  0  0  0
 49104  1  0  0  0
 50105  1  0  0  0
 52106  1  0  0  0
 52107  1  0  0  0
 54108  1  0  0  0
 54109  1  0  0  0
 54110  1  0  0  0
 55111  1  0  0  0
 55112  1  0  0  0
 55113  1  0  0  0
 57114  1  0  0  0
 57115  1  0  0  0
 57116  1  0  0  0
M  CHG  1  21   1
M  END
> <Ki>
0.0001µM

> <Forcefield>
MMFF

> <Chemical Formula>
C33H59N4O20+

> <ForcefieldBase>
MMFF

> <ForcefieldFFML>
<?xml version="1.0" encoding="UTF-8"?>
<!DOCTYPE ffml SYSTEM "Ffml.dtd">
<ffml version="1.0">
<forcefield name="TMG-chitotriomycin-MMFF" derivedFrom="MMFF" base="MMFF">
<atomTypes>
<atomType
 name="O100"
 element="O"
 mass="16"
 annotation=""/>
<atomType
 name="N101"
 element="N"
 mass="14.007"
 annotation=""/>
<atomType
 name="C102"
 element="C"
 mass="12.011"
 annotation=""/>
<atomType
 name="H103"
 element="H"
 mass="1.008"
 annotation=""/>
</atomTypes>
<parameters>
</parameters>
</forcefield>
</ffml>

$$$$
GlcNAc-Inspired Iminocyclitiol
  DSViewer          3D                             0

 53 53  0  0  0  0  0  0  0  0999 V2000
    5.7311  -45.6898   10.7470 C   0  0  1  0  0  0
    5.8869  -44.2850   11.3305 C   0  0  1  0  0  0
    6.2028  -43.2854   10.1960 C   0  0  2  0  0  0
    7.4870  -43.7127    9.5155 N   0  0
    7.3274  -45.0689    8.9448 C   0  0
    7.0283  -46.0962   10.0493 C   0  0  2  0  0  0
    6.8524  -47.4199    9.4849 N   0  0
    4.6673  -43.9040   11.9712 O   0  0
    5.4357  -46.6176   11.7919 O   0  0
    6.3018  -41.8710   10.8664 C   0  0
    7.7786  -48.0250    8.7293 C   0  0
    8.8570  -47.4820    8.4692 O   0  0
    7.4949  -49.3966    8.1887 C   0  0
    6.5095  -40.8049    9.9306 O   0  0
    7.8577  -42.8196    8.4030 C   0  0
    9.2191  -43.2400    7.8099 C   0  0
    9.5460  -42.3215    6.6220 C   0  0
   10.9244  -42.6756    6.0384 C   0  0
   11.1934  -41.7603    4.8310 C   0  0
   12.5876  -42.0457    4.2490 C   0  0
   12.8217  -41.1247    3.0367 C   0  0
   14.1638  -41.3605    2.4880 N   0  0
    4.9165  -45.6911   10.0227 H   0  0
    6.6985  -44.2798   12.0581 H   0  0
    5.3885  -43.2884    9.4713 H   0  0
    6.5031  -45.0614    8.2316 H   0  0
    8.2479  -45.3517    8.4340 H   0  0
    7.8455  -46.1094   10.7706 H   0  0
    5.9377  -47.9392    9.6814 H   0  0
    3.8863  -43.9090   11.2693 H   0  0
    6.2181  -46.6176   12.4922 H   0  0
    5.3741  -41.6798   11.4057 H   0  0
    7.1356  -41.8803   11.5684 H   0  0
    8.3461  -49.7390    7.6003 H   0  0
    6.6074  -49.3622    7.5567 H   0  0
    7.3250  -50.0858    9.0159 H   0  0
    7.4057  -40.9669    9.4080 H   0  0
    7.0945  -42.8763    7.6268 H   0  0
    7.9267  -41.7960    8.7713 H   0  0
    9.9946  -43.1458    8.5701 H   0  0
    9.1668  -44.2743    7.4698 H   0  0
    8.7860  -42.4467    5.8508 H   0  0
    9.5540  -41.2853    6.9601 H   0  0
   11.6942  -42.5220    6.7947 H   0  0
   10.9314  -43.7176    5.7185 H   0  0
   10.4394  -41.9433    4.0655 H   0  0
   11.1428  -40.7193    5.1501 H   0  0
   13.3467  -41.8524    5.0070 H   0  0
   12.6456  -43.0874    3.9333 H   0  0
   12.0751  -41.3364    2.2713 H   0  0
   12.7363  -40.0843    3.3504 H   0  0
   14.2491  -42.3815    2.1792 H   0  0
   14.8980  -41.1527    3.2381 H   0  0
  1  2  1  0  0  0
  2  3  1  0  0  0
  3  4  1  0  0  0
  4  5  1  0  0  0
  5  6  1  0  0  0
  6  1  1  0  0  0
  6  7  1  0  0  0
  2  8  1  0  0  0
  1  9  1  0  0  0
  3 10  1  0  0  0
  7 11  1  0  0  0
 11 12  2  0  0  0
 11 13  1  0  0  0
 10 14  1  0  0  0
  4 15  1  0  0  0
 15 16  1  0  0  0
 16 17  1  0  0  0
 17 18  1  0  0  0
 18 19  1  0  0  0
 19 20  1  0  0  0
 20 21  1  0  0  0
 21 22  1  0  0  0
  1 23  1  0  0  0
  2 24  1  0  0  0
  3 25  1  0  0  0
  5 26  1  0  0  0
  5 27  1  0  0  0
  6 28  1  0  0  0
  7 29  1  0  0  0
  8 30  1  0  0  0
  9 31  1  0  0  0
 10 32  1  0  0  0
 10 33  1  0  0  0
 13 34  1  0  0  0
 13 35  1  0  0  0
 13 36  1  0  0  0
 14 37  1  0  0  0
 15 38  1  0  0  0
 15 39  1  0  0  0
 16 40  1  0  0  0
 16 41  1  0  0  0
 17 42  1  0  0  0
 17 43  1  0  0  0
 18 44  1  0  0  0
 18 45  1  0  0  0
 19 46  1  0  0  0
 19 47  1  0  0  0
 20 48  1  0  0  0
 20 49  1  0  0  0
 21 50  1  0  0  0
 21 51  1  0  0  0
 22 52  1  0  0  0
 22 53  1  0  0  0
M  END
> <Ki>
0.0021µM

> <Forcefield>
MMFF

> <Chemical Formula>
C15H31N3O4

> <ForcefieldBase>
MMFF

> <ForcefieldFFML>
<?xml version="1.0" encoding="UTF-8"?>
<!DOCTYPE ffml SYSTEM "Ffml.dtd">
<ffml version="1.0">
<forcefield name="GlcNAc-Inspired Iminocyclitiol-MMFF" derivedFrom="MMFF" base="MMFF">
<atomTypes>
<atomType
 name="C100"
 element="C"
 mass="12.011"
 annotation=""/>
<atomType
 name="N101"
 element="N"
 mass="14.007"
 annotation=""/>
<atomType
 name="O102"
 element="O"
 mass="16"
 annotation=""/>
<atomType
 name="H103"
 element="H"
 mass="1.008"
 annotation=""/>
</atomTypes>
<parameters>
</parameters>
</forcefield>
</ffml>

$$$$
GlcNAc-Inspired Iminocyclitiol
  DSViewer          3D                             0

 88 90  0  0  0  0  0  0  0  0999 V2000
    2.6580  -47.2881   14.0218 C   0  0  1  0  0  0
    2.8368  -45.8699   14.5446 C   0  0  1  0  0  0
    3.1895  -44.9221   13.3608 C   0  0  2  0  0  0
    4.4991  -45.3801   12.6980 N   0  0
    4.3223  -46.7768   12.2071 C   0  0
    3.9552  -47.7536   13.3653 C   0  0  2  0  0  0
    3.7258  -49.1000   12.8709 N   0  0
    1.6123  -45.4430   15.1511 O   0  0
    2.3230  -48.1664   15.1019 O   0  0
    3.2900  -43.4894   13.9771 C   0  0
    4.5949  -49.7791   12.1168 C   0  0
    5.6831  -49.2939   11.7873 O   0  0
    4.2370  -51.1644   11.6617 C   0  0
    3.5191  -42.4720   13.0023 O   0  0
    4.8969  -44.5324   11.4936 C   0  0
    6.4125  -44.7327   11.0466 C   0  0
    6.6928  -44.0993    9.6096 C   0  0
    8.2469  -43.9130    9.2781 C   0  0
    8.4855  -43.7185    7.7132 C   0  0
    9.9606  -43.2417    7.2997 C   0  0
   10.2457  -43.7062    5.8098 C   0  0
   11.5656  -43.1730    5.0685 C   0  0
   11.6289  -44.1403    3.7880 C   0  0
   11.2958  -41.5758    4.8124 C   0  0
   12.9174  -44.3682    2.9508 C   0  0
   12.2287  -40.5779    4.0199 C   0  0
   14.1267  -43.9077    3.3148 C   0  0
   15.3088  -44.1865    2.4633 C   0  0
   15.1983  -44.9109    1.3665 C   0  0
   13.8852  -45.4547    0.9848 C   0  0
   12.8151  -45.1865    1.7369 C   0  0
   12.0258  -39.2774    4.1439 C   0  0
   12.8564  -38.2855    3.4203 C   0  0
   13.8472  -38.7240    2.6001 C   0  0
   14.0489  -40.1444    2.4658 C   0  0
   13.2960  -41.0180    3.1289 C   0  0
   16.3328  -45.1711    0.5632 O   0  0
   14.6617  -37.8178    1.8965 O   0  0
   14.3242  -36.4506    2.1543 C   0  0
   16.0075  -45.9933   -0.5684 C   0  0
    1.8557  -47.3017   13.2841 H   0  0
    3.6387  -45.8492   15.2827 H   0  0
    2.3844  -44.9448   12.6263 H   0  0
    3.5233  -46.7920   11.4659 H   0  0
    5.2524  -47.1094   11.7462 H   0  0
    4.7568  -47.7652   14.1038 H   0  0
    2.8032  -49.5778   13.1266 H   0  0
    0.8419  -45.4641   14.4380 H   0  0
    3.0936  -48.1548   15.8150 H   0  0
    2.3564  -43.2690   14.4947 H   0  0
    4.1136  -43.4766   14.6910 H   0  0
    5.0504  -51.5715   11.0610 H   0  0
    3.3272  -51.1269   11.0626 H   0  0
    4.0735  -51.8019   12.5306 H   0  0
    4.4209  -42.6645   12.5001 H   0  0
    4.2524  -44.7998   10.6561 H   0  0
    4.7480  -43.4827   11.7467 H   0  0
    7.0626  -44.2515   11.7774 H   0  0
    6.6321  -45.7997   11.0111 H   0  0
    6.2566  -44.7536    8.8548 H   0  0
    6.2125  -43.1219    9.5653 H   0  0
    8.6198  -43.0353    9.8059 H   0  0
    8.7898  -44.7969    9.6128 H   0  0
    8.2893  -44.6713    7.2216 H   0  0
    7.7772  -42.9714    7.3549 H   0  0
   10.0265  -42.1556    7.3642 H   0  0
   10.6928  -43.6912    7.9705 H   0  0
   10.3026  -44.7947    5.8199 H   0  0
    9.3926  -43.3920    5.2085 H   0  0
   12.4428  -43.3162    5.6995 H   0  0
   11.3261  -45.1253    4.1432 H   0  0
   10.8831  -43.7601    3.0899 H   0  0
   10.3342  -41.5300    4.3012 H   0  0
   11.1996  -41.1423    5.8079 H   0  0
   14.2383  -43.3311    4.2330 H   0  0
   16.2822  -43.7871    2.7478 H   0  0
   13.7867  -46.0733    0.0927 H   0  0
   11.8438  -45.5843    1.4428 H   0  0
   11.2262  -38.9251    4.7956 H   0  0
   12.6748  -37.2179    3.5446 H   0  0
   14.8355  -40.5111    1.8064 H   0  0
   13.4808  -42.0849    3.0036 H   0  0
   14.9861  -35.7988    1.5842 H   0  0
   14.4379  -36.2422    3.2182 H   0  0
   13.2914  -36.2685    1.8571 H   0  0
   16.9058  -46.1699   -1.1600 H   0  0
   15.2621  -45.4883   -1.1828 H   0  0
   15.6076  -46.9465   -0.2227 H   0  0
  1  2  1  0  0  0
  2  3  1  0  0  0
  3  4  1  0  0  0
  4  5  1  0  0  0
  5  6  1  0  0  0
  6  1  1  0  0  0
  6  7  1  0  0  0
  2  8  1  0  0  0
  1  9  1  0  0  0
  3 10  1  0  0  0
  7 11  1  0  0  0
 11 12  2  0  0  0
 11 13  1  0  0  0
 10 14  1  0  0  0
  4 15  1  0  0  0
 15 16  1  0  0  0
 16 17  1  0  0  0
 17 18  1  0  0  0
 18 19  1  0  0  0
 19 20  1  0  0  0
 20 21  1  0  0  0
 21 22  1  0  0  0
 22 23  1  0  0  0
 22 24  1  0  0  0
 23 25  1  0  0  0
 24 26  1  0  0  0
 25 27  2  0  0  0
 27 28  1  0  0  0
 28 29  2  0  0  0
 29 30  1  0  0  0
 30 31  2  0  0  0
 31 25  1  0  0  0
 26 32  2  0  0  0
 32 33  1  0  0  0
 33 34  2  0  0  0
 34 35  1  0  0  0
 35 36  2  0  0  0
 36 26  1  0  0  0
 29 37  1  0  0  0
 34 38  1  0  0  0
 38 39  1  0  0  0
 37 40  1  0  0  0
  1 41  1  0  0  0
  2 42  1  0  0  0
  3 43  1  0  0  0
  5 44  1  0  0  0
  5 45  1  0  0  0
  6 46  1  0  0  0
  7 47  1  0  0  0
  8 48  1  0  0  0
  9 49  1  0  0  0
 10 50  1  0  0  0
 10 51  1  0  0  0
 13 52  1  0  0  0
 13 53  1  0  0  0
 13 54  1  0  0  0
 14 55  1  0  0  0
 15 56  1  0  0  0
 15 57  1  0  0  0
 16 58  1  0  0  0
 16 59  1  0  0  0
 17 60  1  0  0  0
 17 61  1  0  0  0
 18 62  1  0  0  0
 18 63  1  0  0  0
 19 64  1  0  0  0
 19 65  1  0  0  0
 20 66  1  0  0  0
 20 67  1  0  0  0
 21 68  1  0  0  0
 21 69  1  0  0  0
 22 70  1  0  0  0
 23 71  1  0  0  0
 23 72  1  0  0  0
 24 73  1  0  0  0
 24 74  1  0  0  0
 27 75  1  0  0  0
 28 76  1  0  0  0
 30 77  1  0  0  0
 31 78  1  0  0  0
 32 79  1  0  0  0
 33 80  1  0  0  0
 35 81  1  0  0  0
 36 82  1  0  0  0
 39 83  1  0  0  0
 39 84  1  0  0  0
 39 85  1  0  0  0
 40 86  1  0  0  0
 40 87  1  0  0  0
 40 88  1  0  0  0
M  END
> <Ki>
0.00069µM

> <Forcefield>
MMFF

> <Chemical Formula>
C32H48N2O6

> <ForcefieldBase>
MMFF

> <ForcefieldFFML>
<?xml version="1.0" encoding="UTF-8"?>
<!DOCTYPE ffml SYSTEM "Ffml.dtd">
<ffml version="1.0">
<forcefield name="GlcNAc-Inspired Iminocyclitiol-MMFF" derivedFrom="MMFF" base="MMFF">
<atomTypes>
<atomType
 name="C100"
 element="C"
 mass="12.011"
 annotation=""/>
<atomType
 name="N101"
 element="N"
 mass="14.007"
 annotation=""/>
<atomType
 name="O102"
 element="O"
 mass="16"
 annotation=""/>
<atomType
 name="H103"
 element="H"
 mass="1.008"
 annotation=""/>
</atomTypes>
<parameters>
</parameters>
</forcefield>
</ffml>

$$$$
M-22971
  DSViewer          3D                             0

 21 22  0  0  0  0  0  0  0  0999 V2000
    6.8512  -45.2774    9.8351 C   0  0
    6.6417  -43.9806   10.1110 C   0  0
    7.3706  -42.9286    9.3683 C   0  0
    8.2244  -43.3254    8.4347 C   0  0
    8.4506  -44.7064    8.1375 C   0  0
    7.8144  -45.6762    8.7837 C   0  0
    9.0569  -42.4978    7.5717 C   0  0
    9.8500  -43.4111    6.6843 C   0  0  1  0  0  0
    9.4506  -44.8101    7.0580 C   0  0
    9.1013  -41.2628    7.5710 O   0  0
    9.9095  -45.8718    6.5220 N   0  0
    9.5081  -47.0749    6.9056 O   0  0
   10.7937  -43.0264    5.6787 N   0  3
   11.3480  -43.8490    5.0481 O   0  0
   11.0413  -41.7442    5.4599 O   0  5
    6.3080  -46.0428   10.3894 H   0  0
    5.9298  -43.7005   10.8875 H   0  0
    7.2121  -41.8711    9.5799 H   0  0
    7.9942  -46.7254    8.5493 H   0  0
   10.6489  -43.4397    7.4253 H   0  0
    9.7276  -47.2096    7.9236 H   0  0
  1  2  2  0  0  0
  2  3  1  0  0  0
  3  4  2  0  0  0
  4  5  1  0  0  0
  5  6  2  0  0  0
  6  1  1  0  0  0
  4  7  1  0  0  0
  7  8  1  0  0  0
  8  9  1  0  0  0
  9  5  1  0  0  0
  7 10  2  0  0  0
  9 11  2  0  0  0
 11 12  1  0  0  0
  8 13  1  0  0  0
 13 14  2  0  0  0
 13 15  1  0  0  0
  1 16  1  0  0  0
  2 17  1  0  0  0
  3 18  1  0  0  0
  6 19  1  0  0  0
  8 20  1  0  0  0
 12 21  1  0  0  0
M  CHG  2  13   1  15  -1
M  END
> <Ki>
0.027µM

> <Reference>
Liu et al., 2012

> <Forcefield>
MMFF

> <Chemical Formula>
C9H6N2O4

> <ForcefieldBase>
MMFF

> <ForcefieldFFML>
<?xml version="1.0" encoding="UTF-8"?>
<!DOCTYPE ffml SYSTEM "Ffml.dtd">
<ffml version="1.0">
<forcefield name="M-22971-MMFF" derivedFrom="MMFF" base="MMFF">
<atomTypes>
<atomType
 name="C100"
 element="C"
 mass="12.011"
 annotation=""/>
<atomType
 name="O101"
 element="O"
 mass="16"
 annotation=""/>
<atomType
 name="N102"
 element="N"
 mass="14.007"
 annotation=""/>
<atomType
 name="H103"
 element="H"
 mass="1.008"
 annotation=""/>
</atomTypes>
<parameters>
</parameters>
</forcefield>
</ffml>

$$$$
M-31850
  SciTegic07212313583D

 56 61  0  0  0  0            999 V2000
    3.1409  -46.3260   13.7914 C   0  0
    2.9423  -45.0361   14.0547 C   0  0
    3.6795  -44.0201   13.3012 C   0  0
    4.5444  -44.3878   12.3542 C   0  0
    4.7616  -45.7879   12.0673 C   0  0
    4.0947  -46.7193   12.7488 C   0  0
    3.4660  -42.6019   13.5850 C   0  0
    4.1392  -41.6824   12.8961 C   0  0
    5.0903  -42.0952   11.8557 C   0  0
    5.2814  -43.3893   11.6005 C   0  0
    6.2376  -43.8055   10.5544 C   0  0
    6.4443  -45.2183   10.2773 N   0  0
    5.7148  -46.1816   11.0254 C   0  0
    5.8869  -47.3829   10.7937 O   0  0
    6.8405  -42.9207    9.9397 O   0  0
    7.3877  -45.7646    9.2405 C   0  0
    8.2333  -44.7685    8.3685 C   0  0
    9.0931  -45.5457    7.4130 N   0  0
    9.9221  -44.6429    6.5552 C   0  0
   10.8152  -45.4811    5.5615 C   0  0
   11.7200  -44.7315    4.6162 N   0  0
   11.8309  -43.2965    4.5519 C   0  0
   12.7476  -42.6921    3.5881 C   0  0
   13.5361  -43.5278    2.7070 C   0  0
   13.4372  -44.8533    2.7626 C   0  0
   12.5197  -45.5010    3.7256 C   0  0
   14.4399  -42.8950    1.7582 C   0  0
   15.1786  -43.6350    0.9345 C   0  0
   15.0786  -45.0951    0.9861 C   0  0
   14.2505  -45.6761    1.8554 C   0  0
   12.8581  -41.3643    3.5201 C   0  0
   13.7753  -40.7177    2.5573 C   0  0
   14.5233  -41.4423    1.7242 C   0  0
   12.4497  -46.7346    3.7537 O   0  0
   11.1808  -42.5420    5.2808 O   0  0
    2.5961  -47.0877   14.3492 H   0  0
    2.2341  -44.7378   14.8277 H   0  0
    4.2583  -47.7747   12.5310 H   0  0
    2.7589  -42.2986   14.3570 H   0  0
    3.9845  -40.6237   13.1043 H   0  0
    5.6406  -41.3422   11.2915 H   0  0
    8.0949  -46.4091    9.7626 H   0  0
    6.7909  -46.3623    8.5515 H   0  0
    7.5628  -44.1179    7.8071 H   0  0
    8.8667  -44.1646    9.0183 H   0  0
    8.4631  -46.1393    6.7840 H   0  0
    9.2635  -43.9914    5.9810 H   0  0
   10.5674  -44.0380    7.1922 H   0  0
   11.4466  -46.1331    6.1652 H   0  0
   10.1426  -46.0866    4.9540 H   0  0
   15.8542  -43.1568    0.2253 H   0  0
   15.6807  -45.7069    0.3143 H   0  0
   14.1766  -46.7629    1.8933 H   0  0
   12.2602  -40.7438    4.1876 H   0  0
   13.8413  -39.6301    2.5280 H   0  0
   15.1941  -40.9488    1.0209 H   0  0
  1  2  2  0
  2  3  1  0
  3  4  2  0
  4  5  1  0
  5  6  2  0
  6  1  1  0
  3  7  1  0
  7  8  2  0
  8  9  1  0
  9 10  2  0
 10  4  1  0
 10 11  1  0
 11 12  1  0
 12 13  1  0
 13  5  1  0
 13 14  2  0
 11 15  2  0
 12 16  1  0
 16 17  1  0
 17 18  1  0
 18 19  1  0
 19 20  1  0
 20 21  1  0
 21 22  1  0
 22 23  1  0
 23 24  1  0
 24 25  2  0
 25 26  1  0
 26 21  1  0
 24 27  1  0
 27 28  2  0
 28 29  1  0
 29 30  2  0
 30 25  1  0
 23 31  2  0
 31 32  1  0
 32 33  2  0
 33 27  1  0
 26 34  2  0
 22 35  2  0
  1 36  1  0
  2 37  1  0
  6 38  1  0
  7 39  1  0
  8 40  1  0
  9 41  1  0
 16 42  1  0
 16 43  1  0
 17 44  1  0
 17 45  1  0
 18 46  1  0
 19 47  1  0
 19 48  1  0
 20 49  1  0
 20 50  1  0
 28 51  1  0
 29 52  1  0
 30 53  1  0
 31 54  1  0
 32 55  1  0
 33 56  1  0
M  END
> <Name>
M-31850

> <Ki>
0.006µM

> <Reference>
Liu et al., 2012

> <Forcefield>
MMFF

> <Chemical Formula>
C28H21N3O4

> <ForcefieldBase>
MMFF

> <ForcefieldFFML>
<?xml version="1.0" encoding="UTF-8"?>
<!DOCTYPE ffml SYSTEM "Ffml.dtd">
<ffml version="1.0">
<forcefield name="M-31850-MMFF" derivedFrom="MMFF" base="MMFF">
<atomTypes>
<atomType
 name="C100"
 element="C"
 mass="12.011"
 annotation=""/>
<atomType
 name="N101"
 element="N"
 mass="14.007"
 annotation=""/>
<atomType
 name="O102"
 element="O"
 mass="16"
 annotation=""/>
<atomType
 name="H103"
 element="H"
 mass="1.008"
 annotation=""/>
</atomTypes>
<parameters>
</parameters>
</forcefield>
</ffml>

$$$$
M-45373
  DSViewer          3D                             0

 31 33  0  0  0  0  0  0  0  0999 V2000
    6.2610  -46.0380   10.4427 C   0  0
    6.0752  -44.7442   10.6937 C   0  0
    6.8175  -43.7343    9.9336 C   0  0
    7.6830  -44.0979    8.9869 C   0  0
    7.8795  -45.5325    8.7189 C   0  0
    7.2057  -46.4501    9.4087 C   0  0
    5.3862  -47.2287   11.3383 Cl  0  0
    8.4291  -42.9862    8.2270 C   0  0
    9.3891  -43.3651    7.1786 N   0  0
   10.0222  -42.3669    6.5352 C   0  0
   10.9537  -42.7194    5.5187 C   0  0
   11.1730  -44.0317    5.2322 C   0  0
   10.4781  -45.0599    5.9410 C   0  0
    9.6472  -44.6986    6.8496 N   0  0
   11.7005  -41.9317    4.7448 C   0  0
   12.4518  -42.8167    3.9019 N   0  0
   12.0675  -44.1238    4.2656 C   0  0
    9.8026  -41.1839    6.8171 O   0  0
   12.5836  -45.3963    3.6610 C   0  0
    5.3701  -44.4352   11.4654 H   0  0
    6.6605  -42.6765   10.1443 H   0  0
    8.5835  -45.8461    7.9482 H   0  0
    7.3593  -47.5092    9.2016 H   0  0
    7.6733  -42.3572    7.7567 H   0  0
    8.9772  -42.4042    8.9678 H   0  0
   10.6479  -46.1132    5.7178 H   0  0
   11.7334  -40.8422    4.7512 H   0  0
   13.1605  -42.5407    3.1493 H   0  0
   12.1052  -46.2486    4.1435 H   0  0
   13.6624  -45.4563    3.8052 H   0  0
   12.3588  -45.4098    2.5945 H   0  0
  1  2  2  0  0  0
  2  3  1  0  0  0
  3  4  2  0  0  0
  4  5  1  0  0  0
  5  6  2  0  0  0
  6  1  1  0  0  0
  1  7  1  0  0  0
  4  8  1  0  0  0
  8  9  1  0  0  0
  9 10  1  0  0  0
 10 11  1  0  0  0
 11 12  1  0  0  0
 12 13  1  0  0  0
 13 14  2  0  0  0
 14  9  1  0  0  0
 11 15  2  0  0  0
 15 16  1  0  0  0
 16 17  1  0  0  0
 17 12  2  0  0  0
 10 18  2  0  0  0
 17 19  1  0  0  0
  2 20  1  0  0  0
  3 21  1  0  0  0
  5 22  1  0  0  0
  6 23  1  0  0  0
  8 24  1  0  0  0
  8 25  1  0  0  0
 13 26  1  0  0  0
 15 27  1  0  0  0
 16 28  1  0  0  0
 19 29  1  0  0  0
 19 30  1  0  0  0
 19 31  1  0  0  0
M  END
> <Reference>
Liu et al., 2012

> <Ki>
0.02µM

> <Forcefield>
MMFF

> <Chemical Formula>
C14H12ClN3O

> <ForcefieldBase>
MMFF

> <ForcefieldFFML>
<?xml version="1.0" encoding="UTF-8"?>
<!DOCTYPE ffml SYSTEM "Ffml.dtd">
<ffml version="1.0">
<forcefield name="M-45373-MMFF" derivedFrom="MMFF" base="MMFF">
<atomTypes>
<atomType
 name="C100"
 element="C"
 mass="12.011"
 annotation=""/>
<atomType
 name="Cl101"
 element="Cl"
 mass="35.453"
 annotation=""/>
<atomType
 name="N102"
 element="N"
 mass="14.007"
 annotation=""/>
<atomType
 name="O103"
 element="O"
 mass="16"
 annotation=""/>
<atomType
 name="H104"
 element="H"
 mass="1.008"
 annotation=""/>
</atomTypes>
<parameters>
</parameters>
</forcefield>
</ffml>

$$$$
C12H17N3O6
  DSViewer          3D                             0

 38 39  0  0  0  0  0  0  0  0999 V2000
    6.4985  -47.1032   10.1878 O   0  0
    8.7589  -45.4734    7.7651 N   0  0
    6.0080  -44.3306   10.7375 O   0  0
    9.2733  -48.3477    7.3062 O   0  0
    7.9053  -41.2773    7.6066 O   0  0
    7.7726  -42.3994    9.5388 N   0  0
    6.8824  -46.0828    9.2643 C   0  0  1  0  0  0
    7.1488  -44.7576    9.9910 C   0  0  1  0  0  0
    8.2254  -46.5269    8.5970 C   0  0  1  0  0  0
    7.4517  -43.6741    8.9233 C   0  0  2  0  0  0
    8.5022  -44.1509    7.9746 C   0  0
    8.0326  -47.8642    7.8338 C   0  0
    7.9775  -41.2799    8.8409 C   0  0
    8.3051  -40.0087    9.5673 C   0  0
    9.2198  -43.4352    7.2114 N   0  0
   10.0173  -44.3205    6.4609 C   0  0
    9.7389  -45.5811    6.7993 C   0  0
   11.0318  -43.8534    5.4232 C   0  0
   11.7592  -44.9552    4.6589 C   0  0
   12.7085  -44.5981    3.7077 O   0  0
   11.5232  -46.1536    4.8478 O   0  0
    7.2681  -47.2510   10.8867 H   0  0
    5.1946  -44.1948   10.0875 H   0  0
    9.6713  -47.6391    6.6413 H   0  0
    7.8488  -42.3547   10.6051 H   0  0
    6.1102  -45.9494    8.5066 H   0  0
    8.0047  -44.8681   10.6569 H   0  0
    8.9437  -46.7075    9.3967 H   0  0
    6.5391  -43.5301    8.3449 H   0  0
    7.3352  -47.7057    7.0112 H   0  0
    7.6247  -48.6078    8.5185 H   0  0
    8.3259  -40.1979   10.6405 H   0  0
    7.5469  -39.2575    9.3460 H   0  0
    9.2808  -39.6460    9.2439 H   0  0
   10.1858  -46.4923    6.4017 H   0  0
   10.5052  -43.2348    4.6964 H   0  0
   11.7821  -43.2523    5.9369 H   0  0
   12.2550  -44.0144    2.9619 H   0  0
  7  1  1  0  0  0
  2  9  1  0  0  0
  2 11  1  0  0  0
  8  3  1  0  0  0
  4 12  1  0  0  0
  5 13  2  0  0  0
 10  6  1  0  0  0
  6 13  1  0  0  0
  7  8  1  0  0  0
  7  9  1  0  0  0
  8 10  1  0  0  0
  9 12  1  0  0  0
 10 11  1  0  0  0
 13 14  1  0  0  0
 11 15  2  0  0  0
 15 16  1  0  0  0
 16 17  2  0  0  0
 17  2  1  0  0  0
 16 18  1  0  0  0
 18 19  1  0  0  0
 19 20  1  0  0  0
 19 21  2  0  0  0
  1 22  1  0  0  0
  3 23  1  0  0  0
  4 24  1  0  0  0
  6 25  1  0  0  0
  7 26  1  0  0  0
  8 27  1  0  0  0
  9 28  1  0  0  0
 10 29  1  0  0  0
 12 30  1  0  0  0
 12 31  1  0  0  0
 14 32  1  0  0  0
 14 33  1  0  0  0
 14 34  1  0  0  0
 17 35  1  0  0  0
 18 36  1  0  0  0
 18 37  1  0  0  0
 20 38  1  0  0  0
M  END
> <Forcefield>
MMFF

> <Chemical Formula>
C12H17N3O6

> <ForcefieldBase>
MMFF

> <ForcefieldFFML>
<?xml version="1.0" encoding="UTF-8"?>
<!DOCTYPE ffml SYSTEM "Ffml.dtd">
<ffml version="1.0">
<forcefield name="C12H17N3O6-MMFF" derivedFrom="MMFF" base="MMFF">
<atomTypes>
<atomType
 name="O100"
 element="O"
 mass="16"
 annotation=""/>
<atomType
 name="N101"
 element="N"
 mass="14.007"
 annotation=""/>
<atomType
 name="C102"
 element="C"
 mass="12.011"
 annotation=""/>
<atomType
 name="H103"
 element="H"
 mass="1.008"
 annotation=""/>
</atomTypes>
<parameters>
</parameters>
</forcefield>
</ffml>

> <Reference>
Liu et al., 2012

$$$$
GlcNAcstatin B
  DSViewer          3D                             0

 48 50  0  0  0  0  0  0  0  0999 V2000
    5.0560  -47.1460   10.6820 O   0  0
    7.7470  -45.6849    8.5947 N   0  0
    5.6075  -44.6763   12.1128 O   0  0
    8.7699  -48.2931    9.0755 O   0  0
    7.6047  -41.4779    9.7663 O   0  0
    6.1634  -43.1772    9.8304 N   0  0
    5.7885  -46.0759   10.0790 C   0  0  1  0  0  0
    6.5137  -45.2105   11.1464 C   0  0  1  0  0  0
    6.8815  -46.7131    9.1176 C   0  0  2  0  0  0
    7.1783  -44.0134   10.3950 C   0  0  1  0  0  0
    7.9522  -44.4870    9.2204 C   0  0
    7.7767  -47.7088    9.9198 C   0  0
    6.4674  -41.9087    9.5441 C   0  0
    5.4336  -41.0020    8.9495 C   0  0
    8.8254  -43.8038    8.5826 N   0  0
    9.2324  -44.6063    7.4992 C   0  0
    8.5762  -45.7682    7.4903 C   0  0
   10.2615  -44.1730    6.4924 C   0  0
   10.6411  -45.3251    5.5412 C   0  0
   11.6607  -44.8315    4.5418 C   0  0
   11.9481  -43.5315    4.4605 C   0  0
   12.9401  -43.0551    3.4938 C   0  0
   13.5614  -43.9223    2.6968 C   0  0
   13.2492  -45.3517    2.7859 C   0  0
   12.3430  -45.7842    3.6621 C   0  0
    5.7149  -47.7632   11.2183 H   0  0
    4.8971  -44.0719   11.6305 H   0  0
    8.3022  -48.8144    8.2932 H   0  0
    5.1822  -43.5600    9.6418 H   0  0
    5.1108  -45.4497    9.4988 H   0  0
    7.2792  -45.8043   11.6460 H   0  0
    6.3913  -47.2362    8.2964 H   0  0
    7.8155  -43.4420   11.0700 H   0  0
    7.1498  -48.4989   10.3332 H   0  0
    8.2685  -47.1724   10.7312 H   0  0
    4.4988  -41.5484    8.8249 H   0  0
    5.7775  -40.6454    7.9786 H   0  0
    5.2712  -40.1516    9.6118 H   0  0
    8.6711  -46.5896    6.7801 H   0  0
    9.8575  -43.3480    5.9057 H   0  0
   11.1553  -43.8406    7.0203 H   0  0
   11.0644  -46.1481    6.1170 H   0  0
    9.7516  -45.6697    5.0138 H   0  0
   11.4432  -42.8214    5.1155 H   0  0
   13.1695  -41.9916    3.4268 H   0  0
   14.3016  -43.5695    1.9786 H   0  0
   13.7589  -46.0618    2.1347 H   0  0
   12.1093  -46.8470    3.7244 H   0  0
  7  1  1  0  0  0
  2  9  1  0  0  0
  2 11  1  0  0  0
  8  3  1  0  0  0
  4 12  1  0  0  0
  5 13  2  0  0  0
 10  6  1  0  0  0
  6 13  1  0  0  0
  7  8  1  0  0  0
  7  9  1  0  0  0
  8 10  1  0  0  0
  9 12  1  0  0  0
 10 11  1  0  0  0
 13 14  1  0  0  0
 11 15  2  0  0  0
 15 16  1  0  0  0
 16 17  2  0  0  0
 17  2  1  0  0  0
 16 18  1  0  0  0
 18 19  1  0  0  0
 19 20  1  0  0  0
 20 21  2  0  0  0
 21 22  1  0  0  0
 22 23  2  0  0  0
 23 24  1  0  0  0
 24 25  2  0  0  0
 25 20  1  0  0  0
  1 26  1  0  0  0
  3 27  1  0  0  0
  4 28  1  0  0  0
  6 29  1  0  0  0
  7 30  1  0  0  0
  8 31  1  0  0  0
  9 32  1  0  0  0
 10 33  1  0  0  0
 12 34  1  0  0  0
 12 35  1  0  0  0
 14 36  1  0  0  0
 14 37  1  0  0  0
 14 38  1  0  0  0
 17 39  1  0  0  0
 18 40  1  0  0  0
 18 41  1  0  0  0
 19 42  1  0  0  0
 19 43  1  0  0  0
 21 44  1  0  0  0
 22 45  1  0  0  0
 23 46  1  0  0  0
 24 47  1  0  0  0
 25 48  1  0  0  0
M  END
> <Ki>
0.42nM

> <Forcefield>
MMFF

> <Chemical Formula>
C18H23N3O4

> <ForcefieldBase>
MMFF

> <ForcefieldFFML>
<?xml version="1.0" encoding="UTF-8"?>
<!DOCTYPE ffml SYSTEM "Ffml.dtd">
<ffml version="1.0">
<forcefield name="GlcNAcstatin B-MMFF" derivedFrom="MMFF" base="MMFF">
<atomTypes>
<atomType
 name="O100"
 element="O"
 mass="16"
 annotation=""/>
<atomType
 name="N101"
 element="N"
 mass="14.007"
 annotation=""/>
<atomType
 name="C102"
 element="C"
 mass="12.011"
 annotation=""/>
<atomType
 name="H103"
 element="H"
 mass="1.008"
 annotation=""/>
</atomTypes>
<parameters>
</parameters>
</forcefield>
</ffml>

$$$$
Gal-PUGNAc
  DSViewer          3D                             0

 44 45  0  0  0  0  0  0  0  0999 V2000
    7.8059  -46.1595    8.6173 O   0  0
    5.0252  -45.1320   11.6082 O   0  0
    8.5720  -48.8237    8.2235 O   0  0
    6.4763  -41.9971    8.4552 O   0  0
    6.6358  -43.1278   10.3767 N   0  0
    6.0145  -46.8307   10.1754 C   0  0  2  0  0  0
    6.1896  -45.4927   10.8626 C   0  0  1  0  0  0
    7.3728  -47.1610    9.5064 C   0  0  1  0  0  0
    6.4138  -44.4300    9.7744 C   0  0  2  0  0  0
    7.5154  -44.8349    8.8165 C   0  0
    7.2926  -48.5108    8.7779 C   0  0
    6.6484  -41.9907    9.6791 C   0  0
    6.8849  -40.6918   10.3919 C   0  0
    8.1218  -43.9564    8.1273 N   0  0
    9.0492  -44.3076    7.2546 O   0  0
    9.5219  -43.1639    6.6154 C   0  0
   10.5261  -43.2957    5.6151 N   0  0
    9.0473  -42.0660    6.9270 O   0  0
   11.0881  -42.2128    4.8778 C   0  0
   10.7225  -40.9473    5.0861 C   0  0
   11.3257  -39.8627    4.3052 C   0  0
   12.2439  -40.1377    3.3810 C   0  0
   12.6498  -41.5233    3.1466 C   0  0
   12.1017  -42.5084    3.8569 C   0  0
    5.6535  -48.1314    9.5212 O   0  0
    4.2006  -45.0681   10.9612 H   0  0
    8.8525  -48.0737    7.5443 H   0  0
    6.7974  -43.0776   11.4333 H   0  0
    6.3170  -47.3536   11.0827 H   0  0
    7.0544  -45.5294   11.5252 H   0  0
    8.1195  -47.2519   10.2952 H   0  0
    5.4927  -44.3635    9.1954 H   0  0
    6.5543  -48.4499    7.9784 H   0  0
    7.0014  -49.2888    9.4836 H   0  0
    7.0145  -40.8799   11.4577 H   0  0
    6.0296  -40.0331   10.2411 H   0  0
    7.7827  -40.2174    9.9955 H   0  0
   10.8857  -44.2804    5.4008 H   0  0
    9.9709  -40.7179    5.8414 H   0  0
   11.0222  -38.8307    4.4814 H   0  0
   12.6924  -39.3317    2.8002 H   0  0
   13.4011  -41.7501    2.3902 H   0  0
   12.4073  -43.5395    3.6793 H   0  0
    5.1448  -48.7403   10.2089 H   0  0
  1  8  1  0  0  0
  1 10  1  0  0  0
  7  2  1  0  0  0
  3 11  1  0  0  0
  4 12  2  0  0  0
  9  5  1  0  0  0
  5 12  1  0  0  0
  6  7  1  0  0  0
  6  8  1  0  0  0
  7  9  1  0  0  0
  8 11  1  0  0  0
  9 10  1  0  0  0
 12 13  1  0  0  0
 10 14  2  0  0  0
 14 15  1  0  0  0
 15 16  1  0  0  0
 16 17  1  0  0  0
 16 18  2  0  0  0
 17 19  1  0  0  0
 19 20  2  0  0  0
 20 21  1  0  0  0
 21 22  2  0  0  0
 22 23  1  0  0  0
 23 24  2  0  0  0
 24 19  1  0  0  0
  6 25  1  0  0  0
  2 26  1  0  0  0
  3 27  1  0  0  0
  5 28  1  0  0  0
  6 29  1  0  0  0
  7 30  1  0  0  0
  8 31  1  0  0  0
  9 32  1  0  0  0
 11 33  1  0  0  0
 11 34  1  0  0  0
 13 35  1  0  0  0
 13 36  1  0  0  0
 13 37  1  0  0  0
 17 38  1  0  0  0
 20 39  1  0  0  0
 21 40  1  0  0  0
 22 41  1  0  0  0
 23 42  1  0  0  0
 24 43  1  0  0  0
 25 44  1  0  0  0
M  END
> <Ki>
0.018µM

> <Forcefield>
MMFF

> <Chemical Formula>
C15H19N3O7

> <ForcefieldBase>
MMFF

> <ForcefieldFFML>
<?xml version="1.0" encoding="UTF-8"?>
<!DOCTYPE ffml SYSTEM "Ffml.dtd">
<ffml version="1.0">
<forcefield name="Gal-PUGNAc-MMFF" derivedFrom="MMFF" base="MMFF">
<atomTypes>
<atomType
 name="O100"
 element="O"
 mass="16"
 annotation=""/>
<atomType
 name="N101"
 element="N"
 mass="14.007"
 annotation=""/>
<atomType
 name="C102"
 element="C"
 mass="12.011"
 annotation=""/>
<atomType
 name="H103"
 element="H"
 mass="1.008"
 annotation=""/>
</atomTypes>
<parameters>
</parameters>
</forcefield>
</ffml>

$$$$
NFPI
  DSViewer          3D                             0

 49 50  0  0  0  0  0  0  0  0999 V2000
   11.4564  -45.4378    5.4391 C   0  0  2  0  0  0
   10.9055  -46.7913    4.9586 C   0  0  2  0  0  0
   10.5506  -47.3941    6.2960 C   0  0  2  0  0  0
    9.5804  -46.2465    6.6954 C   0  0  2  0  0  0
   10.4800  -45.0325    6.4949 N   0  0
    9.9728  -43.6024    6.4418 C   0  0
    9.1507  -43.1582    7.6791 C   0  0
    8.7736  -41.6674    7.5944 C   0  0
    7.8632  -41.3065    8.7477 C   0  0
    7.3739  -42.2592    9.5434 C   0  0
    6.4808  -41.9074   10.6508 C   0  0
    6.1562  -40.6337   10.8649 C   0  0
    6.6942  -39.5849    9.9938 C   0  0
    7.5052  -39.9049    8.9859 C   0  0
   11.8440  -47.5198    4.1634 O   0  0
   11.6871  -47.4823    7.1590 O   0  0
    8.9587  -46.4080    8.1179 C   0  0
   11.6861  -44.4410    4.2858 C   0  0
   12.6331  -44.9860    3.3638 O   0  0
    8.0820  -47.6241    8.2501 C   0  0
    7.4870  -47.8700    9.4124 N   0  0
    7.8899  -48.3800    7.2881 O   0  0
    6.6328  -49.0104    9.5611 C   0  0
    5.3362  -40.3114   11.8764 F   0  0
   12.4167  -45.6190    5.9221 H   0  0
    9.9946  -46.6271    4.3829 H   0  0
   10.0369  -48.3499    6.1931 H   0  0
    8.7721  -46.2047    5.9653 H   0  0
   10.8340  -42.9404    6.3514 H   0  0
    9.3405  -43.4994    5.5599 H   0  0
    8.2385  -43.7526    7.7313 H   0  0
    9.7447  -43.3236    8.5780 H   0  0
    9.6783  -41.0614    7.6436 H   0  0
    8.2587  -41.4767    6.6528 H   0  0
    7.6392  -43.3020    9.3693 H   0  0
    6.0824  -42.6880   11.2989 H   0  0
    6.4306  -38.5421   10.1706 H   0  0
    7.9027  -39.1237    8.3380 H   0  0
   12.0956  -46.9561    3.3139 H   0  0
   12.4211  -48.0851    6.7113 H   0  0
    9.7691  -46.4855    8.8427 H   0  0
    8.3591  -45.5242    8.3356 H   0  0
   10.7428  -44.2579    3.7713 H   0  0
   12.0694  -43.5032    4.6878 H   0  0
   13.5423  -45.1627    3.8586 H   0  0
    7.6467  -47.2129   10.2416 H   0  0
    6.2413  -49.0416   10.5779 H   0  0
    7.2012  -49.9191    9.3632 H   0  0
    5.8049  -48.9393    8.8556 H   0  0
  1  2  1  0  0  0
  2  3  1  0  0  0
  3  4  1  0  0  0
  4  5  1  0  0  0
  5  1  1  0  0  0
  5  6  1  0  0  0
  6  7  1  0  0  0
  7  8  1  0  0  0
  8  9  1  0  0  0
  9 10  2  0  0  0
 10 11  1  0  0  0
 11 12  2  0  0  0
 12 13  1  0  0  0
 13 14  2  0  0  0
 14  9  1  0  0  0
  2 15  1  0  0  0
  3 16  1  0  0  0
  4 17  1  0  0  0
  1 18  1  0  0  0
 18 19  1  0  0  0
 17 20  1  0  0  0
 20 21  1  0  0  0
 20 22  2  0  0  0
 21 23  1  0  0  0
 12 24  1  0  0  0
  1 25  1  0  0  0
  2 26  1  0  0  0
  3 27  1  0  0  0
  4 28  1  0  0  0
  6 29  1  0  0  0
  6 30  1  0  0  0
  7 31  1  0  0  0
  7 32  1  0  0  0
  8 33  1  0  0  0
  8 34  1  0  0  0
 10 35  1  0  0  0
 11 36  1  0  0  0
 13 37  1  0  0  0
 14 38  1  0  0  0
 15 39  1  0  0  0
 16 40  1  0  0  0
 17 41  1  0  0  0
 17 42  1  0  0  0
 18 43  1  0  0  0
 18 44  1  0  0  0
 19 45  1  0  0  0
 21 46  1  0  0  0
 23 47  1  0  0  0
 23 48  1  0  0  0
 23 49  1  0  0  0
M  END
> <Forcefield>
MMFF

> <Chemical Formula>
C17H25FN2O4

> <ForcefieldBase>
MMFF

> <ForcefieldFFML>
<?xml version="1.0" encoding="UTF-8"?>
<!DOCTYPE ffml SYSTEM "Ffml.dtd">
<ffml version="1.0">
<forcefield name="NFPI-MMFF" derivedFrom="MMFF" base="MMFF">
<atomTypes>
<atomType
 name="C100"
 element="C"
 mass="12.011"
 annotation=""/>
<atomType
 name="N101"
 element="N"
 mass="14.007"
 annotation=""/>
<atomType
 name="O102"
 element="O"
 mass="16"
 annotation=""/>
<atomType
 name="F103"
 element="F"
 mass="18.998"
 annotation=""/>
<atomType
 name="H104"
 element="H"
 mass="1.008"
 annotation=""/>
</atomTypes>
<parameters>
</parameters>
</forcefield>
</ffml>

$$$$
(Z)-2-Acetamido-5-N,6-S-(N?-butyliminomethylidene)-1,2-dideoxy-6-thionojirimycin
  DSViewer          3D                             0

 43 44  0  0  0  0  0  0  0  0999 V2000
   -0.0200    0.6545   -0.1434 N   0  0
   -0.0937    2.1020   -0.3709 C   0  0  2  0  0  0
    1.2891    0.1732   -0.0954 C   0  0
    2.3284    1.4736   -0.0362 S   0  0
    1.2360    2.7948    0.1525 C   0  0
    1.6561   -1.0333   -0.1002 N   0  0
    3.0640   -1.3202   -0.0467 C   0  0
    3.3256   -2.8333   -0.0395 C   0  0
    4.8494   -3.0657    0.0148 C   0  0
    5.1499   -4.5745    0.0199 C   0  0
   -1.3555    2.7449    0.1819 C   0  0  2  0  0  0
   -2.5786    1.9715   -0.3372 C   0  0  1  0  0  0
   -2.4653    0.5065    0.1649 C   0  0  2  0  0  0
   -1.1694   -0.1727   -0.3974 C   0  0
   -3.7642    2.5650    0.1958 O   0  0
   -1.4090    4.1158   -0.2158 O   0  0
   -3.6439   -0.2243   -0.2605 N   0  0
   -3.8539   -1.5148    0.0139 C   0  0
   -3.0346   -2.1778    0.6613 O   0  0
   -5.1155   -2.1688   -0.4714 C   0  0
   -0.1170    2.2473   -1.4509 H   0  0
    1.1504    3.1075    1.1932 H   0  0
    1.5196    3.6492   -0.4620 H   0  0
    3.5492   -0.8803   -0.9180 H   0  0
    3.4809   -0.8837    0.8610 H   0  0
    2.8537   -3.2838    0.8337 H   0  0
    2.9174   -3.2813   -0.9455 H   0  0
    5.3159   -2.6075   -0.8573 H   0  0
    5.2515   -2.6144    0.9218 H   0  0
    6.2279   -4.7307    0.0583 H   0  0
    4.7496   -5.0283   -0.8869 H   0  0
    4.6852   -5.0351    0.8917 H   0  0
   -1.3355    2.6905    1.2704 H   0  0
   -2.6036    1.9948   -1.4267 H   0  0
   -2.4218    0.5069    1.2540 H   0  0
   -1.0309   -1.1389    0.0876 H   0  0
   -1.2773   -0.3174   -1.4724 H   0  0
   -3.7368    2.5216    1.2446 H   0  0
   -0.5679    4.6219    0.1570 H   0  0
   -4.3865    0.2994   -0.8255 H   0  0
   -5.1255   -3.2141   -0.1627 H   0  0
   -5.1599   -2.1114   -1.5590 H   0  0
   -5.9781   -1.6564   -0.0454 H   0  0
  1  2  1  0  0  0
  1  3  1  0  0  0
  3  4  1  0  0  0
  4  5  1  0  0  0
  5  2  1  0  0  0
  3  6  2  0  0  0
  6  7  1  0  0  0
  7  8  1  0  0  0
  8  9  1  0  0  0
  9 10  1  0  0  0
  2 11  1  0  0  0
 11 12  1  0  0  0
 12 13  1  0  0  0
 13 14  1  0  0  0
 14  1  1  0  0  0
 12 15  1  0  0  0
 11 16  1  0  0  0
 13 17  1  0  0  0
 17 18  1  0  0  0
 18 19  2  0  0  0
 18 20  1  0  0  0
  2 21  1  0  0  0
  5 22  1  0  0  0
  5 23  1  0  0  0
  7 24  1  0  0  0
  7 25  1  0  0  0
  8 26  1  0  0  0
  8 27  1  0  0  0
  9 28  1  0  0  0
  9 29  1  0  0  0
 10 30  1  0  0  0
 10 31  1  0  0  0
 10 32  1  0  0  0
 11 33  1  0  0  0
 12 34  1  0  0  0
 13 35  1  0  0  0
 14 36  1  0  0  0
 14 37  1  0  0  0
 15 38  1  0  0  0
 16 39  1  0  0  0
 17 40  1  0  0  0
 20 41  1  0  0  0
 20 42  1  0  0  0
 20 43  1  0  0  0
M  END
> <Reference>
González-Cuesta et al., 2022

> <Clean Energy>
30.0358

> <Chemical Formula>
C13H23N3O3S

> <ForcefieldFFML>
<?xml version="1.0" encoding="UTF-8"?>
<!DOCTYPE ffml SYSTEM "Ffml.dtd">
<ffml version="1.0">
<forcefield name="(Z)-2-Acetamido-5-N,6-S-(N?-butyliminomethylidene)-1,2-dideoxy-6-thionojirimycin-MMFF" derivedFrom="MMFF" base="MMFF">
<atomTypes>
<atomType
 name="N100"
 element="N"
 mass="14.007"
 annotation=""/>
<atomType
 name="C101"
 element="C"
 mass="12.011"
 annotation=""/>
<atomType
 name="S102"
 element="S"
 mass="32.066"
 annotation=""/>
<atomType
 name="O103"
 element="O"
 mass="16"
 annotation=""/>
<atomType
 name="H104"
 element="H"
 mass="1.008"
 annotation=""/>
</atomTypes>
<parameters>
</parameters>
</forcefield>
</ffml>

> <ForcefieldBase>
MMFF

> <Ki>
24 ± 8nM

> <Forcefield>
MMFF

$$$$
(Z)-2-Acetamido-1,2-dideoxy-5-N,6-S-(N?-octyliminomethylidene)-6-thionojirimycin
  DSViewer          3D                             0

 55 56  0  0  0  0  0  0  0  0999 V2000
   -1.3702    2.1407   -0.1364 N   0  0
   -1.3446    3.5994   -0.3640 C   0  0  2  0  0  0
   -0.0846    1.5935   -0.0896 C   0  0
    1.0309    2.8145   -0.0302 S   0  0
    0.0231    4.2029    0.1622 C   0  0
    0.2122    0.3458   -0.0978 N   0  0
    1.6099   -0.0027   -0.0469 C   0  0
    1.8224   -1.5301   -0.0459 C   0  0
    3.3454   -1.7975   -0.0052 C   0  0
    3.6404   -3.3103   -0.0120 C   0  0
    5.1701   -3.5204    0.0131 C   0  0
    5.4974   -5.0257   -0.0010 C   0  0
    7.0274   -5.2166    0.0165 C   0  0
    7.3615   -6.7201    0.0007 C   0  0
   -2.5653    4.3254    0.1822 C   0  0  2  0  0  0
   -3.8342    3.6380   -0.3412 C   0  0  1  0  0  0
   -3.8233    2.1687    0.1630 C   0  0  2  0  0  0
   -2.5723    1.4005   -0.3910 C   0  0
   -2.5243    5.6971   -0.2182 O   0  0
   -5.0487    1.5245   -0.2667 N   0  0
   -4.9794    4.3112    0.1853 O   0  0
   -5.3558    0.2558    0.0166 C   0  0
   -4.5935   -0.4592    0.6763 O   0  0
   -6.6592   -0.3064   -0.4744 C   0  0
   -1.3536    3.7456   -1.4441 H   0  0
   -0.0438    4.5168    1.2039 H   0  0
    0.3612    5.0398   -0.4489 H   0  0
    2.1107    0.4220   -0.9169 H   0  0
    2.0439    0.4138    0.8621 H   0  0
    1.3457   -1.9698    0.8302 H   0  0
    1.3942   -1.9642   -0.9494 H   0  0
    3.8111   -1.3396   -0.8779 H   0  0
    3.7605   -1.3575    0.9016 H   0  0
    3.1928   -3.7745    0.8668 H   0  0
    3.2240   -3.7604   -0.9132 H   0  0
    5.6134   -3.0468   -0.8629 H   0  0
    5.5810   -3.0705    0.9169 H   0  0
    5.0616   -5.5009    0.8779 H   0  0
    5.0846   -5.4793   -0.9021 H   0  0
    7.4623   -4.7394   -0.8617 H   0  0
    7.4390   -4.7632    0.9182 H   0  0
    8.4433   -6.8526    0.0131 H   0  0
    6.9507   -7.1747   -0.9008 H   0  0
    6.9274   -7.1985    0.8787 H   0  0
   -2.5543    4.2716    1.2708 H   0  0
   -3.8523    3.6614   -1.4308 H   0  0
   -3.7858    2.1681    1.2524 H   0  0
   -2.5042    0.4284    0.0973 H   0  0
   -2.6855    1.2605   -1.4660 H   0  0
   -1.6533    6.1464    0.1586 H   0  0
   -5.7456    2.0969   -0.8425 H   0  0
   -4.9603    4.2672    1.2342 H   0  0
   -6.7498   -1.3453   -0.1574 H   0  0
   -6.6907   -0.2551   -1.5627 H   0  0
   -7.4844    0.2727   -0.0597 H   0  0
  1  2  1  0  0  0
  1  3  1  0  0  0
  3  4  1  0  0  0
  4  5  1  0  0  0
  5  2  1  0  0  0
  3  6  2  0  0  0
  6  7  1  0  0  0
  7  8  1  0  0  0
  8  9  1  0  0  0
  9 10  1  0  0  0
 10 11  1  0  0  0
 11 12  1  0  0  0
 12 13  1  0  0  0
 13 14  1  0  0  0
  2 15  1  0  0  0
 15 16  1  0  0  0
 16 17  1  0  0  0
 17 18  1  0  0  0
 18  1  1  0  0  0
 15 19  1  0  0  0
 17 20  1  0  0  0
 16 21  1  0  0  0
 20 22  1  0  0  0
 22 23  2  0  0  0
 22 24  1  0  0  0
  2 25  1  0  0  0
  5 26  1  0  0  0
  5 27  1  0  0  0
  7 28  1  0  0  0
  7 29  1  0  0  0
  8 30  1  0  0  0
  8 31  1  0  0  0
  9 32  1  0  0  0
  9 33  1  0  0  0
 10 34  1  0  0  0
 10 35  1  0  0  0
 11 36  1  0  0  0
 11 37  1  0  0  0
 12 38  1  0  0  0
 12 39  1  0  0  0
 13 40  1  0  0  0
 13 41  1  0  0  0
 14 42  1  0  0  0
 14 43  1  0  0  0
 14 44  1  0  0  0
 15 45  1  0  0  0
 16 46  1  0  0  0
 17 47  1  0  0  0
 18 48  1  0  0  0
 18 49  1  0  0  0
 19 50  1  0  0  0
 20 51  1  0  0  0
 21 52  1  0  0  0
 24 53  1  0  0  0
 24 54  1  0  0  0
 24 55  1  0  0  0
M  END
> <Reference>
González-Cuesta et al., 2022

> <Clean Energy>
29.7685

> <Chemical Formula>
C17H31N3O3S

> <ForcefieldFFML>
<?xml version="1.0" encoding="UTF-8"?>
<!DOCTYPE ffml SYSTEM "Ffml.dtd">
<ffml version="1.0">
<forcefield name="(Z)-2-Acetamido-1,2-dideoxy-5-N,6-S-(N?-octyliminomethylidene)-6-thionojirimycin-MMFF" derivedFrom="MMFF" base="MMFF">
<atomTypes>
<atomType
 name="N100"
 element="N"
 mass="14.007"
 annotation=""/>
<atomType
 name="C101"
 element="C"
 mass="12.011"
 annotation=""/>
<atomType
 name="S102"
 element="S"
 mass="32.066"
 annotation=""/>
<atomType
 name="O103"
 element="O"
 mass="16"
 annotation=""/>
<atomType
 name="H104"
 element="H"
 mass="1.008"
 annotation=""/>
</atomTypes>
<parameters>
</parameters>
</forcefield>
</ffml>

> <ForcefieldBase>
MMFF

> <Ki>
20 ± 7nM

> <Forcefield>
MMFF

$$$$
(Z)-2-Acetamido-1,2-dideoxy-5-N,6-S-(N?-phenyliminomethylidene)-6-thionojirimycin
  DSViewer          3D                             0

 41 43  0  0  0  0  0  0  0  0999 V2000
   -0.4131    0.2114   -0.1377 N   0  0
   -0.6060    1.6551   -0.3648 C   0  0  2  0  0  0
    0.9454   -0.1565   -0.0926 C   0  0
    1.8495    1.2500   -0.0365 S   0  0
    0.6466    2.4583    0.1642 C   0  0
    1.3785   -1.3665   -0.0983 N   0  0
    2.7646   -1.7610   -0.0543 C   0  0
    3.0590   -3.0625   -0.0330 C   0  0
    4.4593   -3.5083    0.0120 C   0  0
    5.4477   -2.6163    0.0312 C   0  0
    5.1384   -1.1908    0.0079 C   0  0
    3.8711   -0.7867   -0.0323 C   0  0
   -1.9140    2.1947    0.1831 C   0  0  2  0  0  0
   -3.0699    1.3356   -0.3387 C   0  0  1  0  0  0
   -2.8528   -0.1151    0.1631 C   0  0  2  0  0  0
   -1.5026   -0.7020   -0.3917 C   0  0
   -4.2976    1.8397    0.1901 O   0  0
   -2.0703    3.5573   -0.2158 O   0  0
   -3.9835   -0.9140   -0.2702 N   0  0
   -4.1324   -2.2094    0.0120 C   0  0
   -5.3567   -2.9269   -0.4818 C   0  0
   -3.2893   -2.8241    0.6746 O   0  0
   -0.6364    1.7999   -1.4448 H   0  0
    0.5325    2.7511    1.2079 H   0  0
    0.8504    3.3415   -0.4413 H   0  0
    2.2562   -3.7996   -0.0490 H   0  0
    4.6893   -4.5736    0.0296 H   0  0
    6.4847   -2.9502    0.0643 H   0  0
    5.9446   -0.4574    0.0234 H   0  0
    3.6478    0.2800   -0.0492 H   0  0
   -1.8935    2.1419    1.2716 H   0  0
   -3.0926    1.3572   -1.4282 H   0  0
   -2.8173   -0.1121    1.2525 H   0  0
   -1.2958   -1.6526    0.0998 H   0  0
   -1.5949   -0.8604   -1.4661 H   0  0
   -4.2707    1.7984    1.2390 H   0  0
   -1.2720    4.1263    0.1603 H   0  0
   -4.7440   -0.4354   -0.8512 H   0  0
   -5.3198   -3.9693   -0.1655 H   0  0
   -5.3922   -2.8791   -1.5702 H   0  0
   -6.2473   -2.4536   -0.0685 H   0  0
  1  2  1  0  0  0
  1  3  1  0  0  0
  3  4  1  0  0  0
  4  5  1  0  0  0
  5  2  1  0  0  0
  3  6  2  0  0  0
  6  7  1  0  0  0
  7  8  2  0  0  0
  8  9  1  0  0  0
  9 10  2  0  0  0
 10 11  1  0  0  0
 11 12  2  0  0  0
 12  7  1  0  0  0
  2 13  1  0  0  0
 13 14  1  0  0  0
 14 15  1  0  0  0
 15 16  1  0  0  0
 16  1  1  0  0  0
 14 17  1  0  0  0
 13 18  1  0  0  0
 15 19  1  0  0  0
 19 20  1  0  0  0
 20 21  1  0  0  0
 20 22  2  0  0  0
  2 23  1  0  0  0
  5 24  1  0  0  0
  5 25  1  0  0  0
  8 26  1  0  0  0
  9 27  1  0  0  0
 10 28  1  0  0  0
 11 29  1  0  0  0
 12 30  1  0  0  0
 13 31  1  0  0  0
 14 32  1  0  0  0
 15 33  1  0  0  0
 16 34  1  0  0  0
 16 35  1  0  0  0
 17 36  1  0  0  0
 18 37  1  0  0  0
 19 38  1  0  0  0
 21 39  1  0  0  0
 21 40  1  0  0  0
 21 41  1  0  0  0
M  END
> <Reference>
González-Cuesta et al., 2022

> <Clean Energy>
32.6693

> <Chemical Formula>
C15H19N3O3S

> <ForcefieldFFML>
<?xml version="1.0" encoding="UTF-8"?>
<!DOCTYPE ffml SYSTEM "Ffml.dtd">
<ffml version="1.0">
<forcefield name="(Z)-2-Acetamido-1,2-dideoxy-5-N,6-S-(N?-phenyliminomethylidene)-6-thionojirimycin-MMFF" derivedFrom="MMFF" base="MMFF">
<atomTypes>
<atomType
 name="N100"
 element="N"
 mass="14.007"
 annotation=""/>
<atomType
 name="C101"
 element="C"
 mass="12.011"
 annotation=""/>
<atomType
 name="S102"
 element="S"
 mass="32.066"
 annotation=""/>
<atomType
 name="O103"
 element="O"
 mass="16"
 annotation=""/>
<atomType
 name="H104"
 element="H"
 mass="1.008"
 annotation=""/>
</atomTypes>
<parameters>
</parameters>
</forcefield>
</ffml>

> <ForcefieldBase>
MMFF

> <Ki>
400 ± 130nM

> <Forcefield>
MMFF

$$$$
(Z)-2-Acetamido-5-N,6-S-(N?-benzyliminomethylidene)-1,2-dideoxy-6-thionojirimycin
  DSViewer          3D                             0

 44 46  0  0  0  0  0  0  0  0999 V2000
   -0.2608    1.1055   -0.1313 N   0  0
   -0.3675    2.5543   -0.3622 C   0  0  2  0  0  0
    1.0733    0.6572   -0.0892 C   0  0
    2.0671    1.9960   -0.0316 S   0  0
    0.9397    3.2801    0.1652 C   0  0
    1.5066   -0.5259   -0.0971 N   0  0
    2.9413   -0.6885   -0.0496 C   0  0
    3.4008   -2.1157   -0.0269 C   0  0
    2.5215   -3.1236   -0.0335 C   0  0
    3.0086   -4.5097   -0.0112 C   0  0
    4.3166   -4.7633    0.0149 C   0  0
    5.2759   -3.6575    0.0221 C   0  0
    4.8378   -2.4026    0.0025 C   0  0
   -1.6410    3.1778    0.1802 C   0  0  2  0  0  0
   -2.8458    2.3863   -0.3434 C   0  0  1  0  0  0
   -2.7151    0.9260    0.1645 C   0  0  2  0  0  0
   -1.4004    0.2544   -0.3857 C   0  0
   -3.8867    0.1883   -0.2675 N   0  0
   -1.7137    4.5460   -0.2236 O   0  0
   -4.0431    2.9654    0.1802 O   0  0
   -4.1007   -1.0977    0.0166 C   0  0
   -5.3585   -1.7545   -0.4756 C   0  0
   -3.2887   -1.7536    0.6797 O   0  0
   -0.3875    2.6963   -1.4428 H   0  0
    0.8451    3.5830    1.2080 H   0  0
    1.1985    4.1465   -0.4434 H   0  0
    3.3686   -0.2066   -0.9290 H   0  0
    3.3108   -0.1969    0.8503 H   0  0
    1.4513   -2.9182   -0.0552 H   0  0
    2.2963   -5.3348   -0.0161 H   0  0
    4.6721   -5.7936    0.0309 H   0  0
    6.3462   -3.8625    0.0435 H   0  0
    5.5532   -1.5802    0.0083 H   0  0
   -1.6271    3.1274    1.2690 H   0  0
   -2.8638    2.4055   -1.4331 H   0  0
   -2.6812    0.9312    1.2540 H   0  0
   -1.2513   -0.7045    0.1106 H   0  0
   -1.4992    0.0968   -1.4597 H   0  0
   -4.6222    0.7053   -0.8477 H   0  0
   -0.8829    5.0669    0.1520 H   0  0
   -4.0218    2.9261    1.2293 H   0  0
   -5.3732   -2.7968   -0.1573 H   0  0
   -5.3917   -1.7071   -1.5641 H   0  0
   -6.2246   -1.2369   -0.0632 H   0  0
  1  2  1  0  0  0
  1  3  1  0  0  0
  3  4  1  0  0  0
  4  5  1  0  0  0
  5  2  1  0  0  0
  3  6  2  0  0  0
  6  7  1  0  0  0
  7  8  1  0  0  0
  8  9  2  0  0  0
  9 10  1  0  0  0
 10 11  2  0  0  0
 11 12  1  0  0  0
 12 13  2  0  0  0
 13  8  1  0  0  0
  2 14  1  0  0  0
 14 15  1  0  0  0
 15 16  1  0  0  0
 16 17  1  0  0  0
 17  1  1  0  0  0
 16 18  1  0  0  0
 14 19  1  0  0  0
 15 20  1  0  0  0
 18 21  1  0  0  0
 21 22  1  0  0  0
 21 23  2  0  0  0
  2 24  1  0  0  0
  5 25  1  0  0  0
  5 26  1  0  0  0
  7 27  1  0  0  0
  7 28  1  0  0  0
  9 29  1  0  0  0
 10 30  1  0  0  0
 11 31  1  0  0  0
 12 32  1  0  0  0
 13 33  1  0  0  0
 14 34  1  0  0  0
 15 35  1  0  0  0
 16 36  1  0  0  0
 17 37  1  0  0  0
 17 38  1  0  0  0
 18 39  1  0  0  0
 19 40  1  0  0  0
 20 41  1  0  0  0
 22 42  1  0  0  0
 22 43  1  0  0  0
 22 44  1  0  0  0
M  END
> <Reference>
González-Cuesta et al., 2022

> <Clean Energy>
30.3618

> <Chemical Formula>
C16H21N3O3S

> <ForcefieldFFML>
<?xml version="1.0" encoding="UTF-8"?>
<!DOCTYPE ffml SYSTEM "Ffml.dtd">
<ffml version="1.0">
<forcefield name="(Z)-2-Acetamido-5-N,6-S-(N?-benzyliminomethylidene)-1,2-dideoxy-6-thionojirimycin-MMFF" derivedFrom="MMFF" base="MMFF">
<atomTypes>
<atomType
 name="N100"
 element="N"
 mass="14.007"
 annotation=""/>
<atomType
 name="C101"
 element="C"
 mass="12.011"
 annotation=""/>
<atomType
 name="S102"
 element="S"
 mass="32.066"
 annotation=""/>
<atomType
 name="O103"
 element="O"
 mass="16"
 annotation=""/>
<atomType
 name="H104"
 element="H"
 mass="1.008"
 annotation=""/>
</atomTypes>
<parameters>
</parameters>
</forcefield>
</ffml>

> <ForcefieldBase>
MMFF

> <Ki>
3 ± 1nM

> <Forcefield>
MMFF

$$$$
(Z)-2-Acetamido-5-N,6-S-(N?-1-naphthymethyliminomethylidene)-1,2-dideoxy-6- thionojirimycin
  DSViewer          3D                             0

 50 53  0  0  0  0  0  0  0  0999 V2000
   -1.4453    1.1089   -0.1137 N   0  0
   -1.6144    2.5573   -0.3556 C   0  0  2  0  0  0
   -0.0778    0.7337   -0.0780 C   0  0
    0.8460    2.1144   -0.0320 S   0  0
   -0.3430    3.3432    0.1662 C   0  0
    0.4246   -0.4380   -0.0854 N   0  0
    1.8774   -0.5133   -0.0472 C   0  0
    2.4280   -1.9198   -0.0279 C   0  0
    1.6153   -2.9742   -0.0245 C   0  0
    2.1804   -4.3317   -0.0062 C   0  0
    3.5015   -4.5104    0.0071 C   0  0
    4.3969   -3.3538    0.0028 C   0  0
    3.8902   -2.1210   -0.0123 C   0  0
    5.8513   -3.5514    0.0169 C   0  0
    6.6674   -2.4985    0.0129 C   0  0
    6.1122   -1.1429   -0.0041 C   0  0
    4.7918   -0.9627   -0.0167 C   0  0
   -2.9163    3.1337    0.1766 C   0  0  2  0  0  0
   -4.0864    2.2942   -0.3417 C   0  0  1  0  0  0
   -3.9044    0.8456    0.1801 C   0  0  2  0  0  0
   -2.5572    0.2134   -0.3586 C   0  0
   -3.0425    4.4943   -0.2421 O   0  0
   -5.0604    0.0774   -0.2494 N   0  0
   -5.3066    2.8330    0.1730 O   0  0
   -5.2385   -1.2206    0.0013 C   0  0
   -6.4917   -1.8904   -0.4881 C   0  0
   -4.4016   -1.8764    0.6310 O   0  0
   -1.6371    2.6895   -1.4373 H   0  0
   -0.4492    3.6427    1.2088 H   0  0
   -0.1277    4.2202   -0.4442 H   0  0
    2.2685   -0.0061   -0.9292 H   0  0
    2.2220    0.0001    0.8505 H   0  0
    0.5347   -2.8318   -0.0352 H   0  0
    1.5161   -5.1959   -0.0036 H   0  0
    3.9146   -5.5190    0.0211 H   0  0
    6.2638   -4.5602    0.0308 H   0  0
    7.7474   -2.6456    0.0224 H   0  0
    6.7796   -0.2810   -0.0065 H   0  0
    4.3807    0.0467   -0.0302 H   0  0
   -2.9046    3.0952    1.2659 H   0  0
   -4.1017    2.3024   -1.4316 H   0  0
   -3.8762    0.8630    1.2696 H   0  0
   -2.3754   -0.7324    0.1518 H   0  0
   -2.6468    0.0371   -1.4305 H   0  0
   -2.2350    5.0522    0.1311 H   0  0
   -5.8202    0.5872   -0.8041 H   0  0
   -5.2872    2.8046    1.2224 H   0  0
   -6.4783   -2.9417   -0.2011 H   0  0
   -6.5462   -1.8114   -1.5739 H   0  0
   -7.3609   -1.4043   -0.0448 H   0  0
  1  2  1  0  0  0
  1  3  1  0  0  0
  3  4  1  0  0  0
  4  5  1  0  0  0
  5  2  1  0  0  0
  3  6  2  0  0  0
  6  7  1  0  0  0
  7  8  1  0  0  0
  8  9  2  0  0  0
  9 10  1  0  0  0
 10 11  2  0  0  0
 11 12  1  0  0  0
 12 13  2  0  0  0
 13  8  1  0  0  0
 12 14  1  0  0  0
 14 15  2  0  0  0
 15 16  1  0  0  0
 16 17  2  0  0  0
 17 13  1  0  0  0
  2 18  1  0  0  0
 18 19  1  0  0  0
 19 20  1  0  0  0
 20 21  1  0  0  0
 21  1  1  0  0  0
 18 22  1  0  0  0
 20 23  1  0  0  0
 19 24  1  0  0  0
 23 25  1  0  0  0
 25 26  1  0  0  0
 25 27  2  0  0  0
  2 28  1  0  0  0
  5 29  1  0  0  0
  5 30  1  0  0  0
  7 31  1  0  0  0
  7 32  1  0  0  0
  9 33  1  0  0  0
 10 34  1  0  0  0
 11 35  1  0  0  0
 14 36  1  0  0  0
 15 37  1  0  0  0
 16 38  1  0  0  0
 17 39  1  0  0  0
 18 40  1  0  0  0
 19 41  1  0  0  0
 20 42  1  0  0  0
 21 43  1  0  0  0
 21 44  1  0  0  0
 22 45  1  0  0  0
 23 46  1  0  0  0
 24 47  1  0  0  0
 26 48  1  0  0  0
 26 49  1  0  0  0
 26 50  1  0  0  0
M  END
> <Reference>
González-Cuesta et al., 2022

> <Clean Energy>
29.6488

> <Chemical Formula>
C20H23N3O3S

> <ForcefieldFFML>
<?xml version="1.0" encoding="UTF-8"?>
<!DOCTYPE ffml SYSTEM "Ffml.dtd">
<ffml version="1.0">
<forcefield name="(Z)-2-Acetamido-5-N,6-S-(N?-1-naphthymethyliminomethylidene)-1,2-dideoxy-6- thionojirimycin-MMFF" derivedFrom="MMFF" base="MMFF">
<atomTypes>
<atomType
 name="N100"
 element="N"
 mass="14.007"
 annotation=""/>
<atomType
 name="C101"
 element="C"
 mass="12.011"
 annotation=""/>
<atomType
 name="S102"
 element="S"
 mass="32.066"
 annotation=""/>
<atomType
 name="O103"
 element="O"
 mass="16"
 annotation=""/>
<atomType
 name="H104"
 element="H"
 mass="1.008"
 annotation=""/>
</atomTypes>
<parameters>
</parameters>
</forcefield>
</ffml>

> <ForcefieldBase>
MMFF

> <Ki>
0.3 ± 0.1nM

> <Forcefield>
MMFF

$$$$
(Z)-2-Acetamido-5-N,6-S-(N?-p-fluorobenzyliminomethylidene)-1,2-dideoxy-6- thionojirimycin
  DSViewer          3D                             0

 44 46  0  0  0  0  0  0  0  0999 V2000
   -0.2622    1.6228   -0.1290 N   0  0
   -0.3120    3.0796   -0.3637 C   0  0  2  0  0  0
    1.0564    1.1371   -0.0853 C   0  0
    2.0989    2.4288   -0.0322 S   0  0
    1.0203    3.7562    0.1609 C   0  0
    1.4464   -0.0756   -0.0901 N   0  0
    2.8764   -0.2745   -0.0419 C   0  0
    3.3053   -1.7162   -0.0253 C   0  0
    2.4170   -2.7080   -0.0348 C   0  0
    2.8865   -4.1046   -0.0189 C   0  0
    4.1935   -4.3723    0.0044 C   0  0
    5.1626   -3.2803    0.0150 C   0  0
    4.7405   -2.0187    0.0012 C   0  0
    4.6220   -5.6436    0.0180 F   0  0
   -1.5621    3.7511    0.1775 C   0  0  2  0  0  0
   -2.7959    3.0050   -0.3428 C   0  0  1  0  0  0
   -2.7196    1.5410    0.1689 C   0  0  2  0  0  0
   -1.4314    0.8207   -0.3798 C   0  0
   -1.5832    5.1207   -0.2304 O   0  0
   -3.9190    0.8473   -0.2594 N   0  0
   -3.9702    3.6299    0.1798 O   0  0
   -4.1746   -0.4341    0.0142 C   0  0
   -5.4581   -1.0419   -0.4748 C   0  0
   -3.3816   -1.1245    0.6641 O   0  0
   -0.3270    3.2198   -1.4446 H   0  0
    0.9373    4.0658    1.2027 H   0  0
    1.3117    4.6104   -0.4503 H   0  0
    3.3160    0.2012   -0.9186 H   0  0
    3.2564    0.2040    0.8607 H   0  0
    1.3496   -2.4882   -0.0542 H   0  0
    2.1643   -4.9210   -0.0263 H   0  0
    6.2304   -3.4983    0.0342 H   0  0
    5.4656   -1.2048    0.0096 H   0  0
   -1.5495    3.7035    1.2664 H   0  0
   -2.8140    3.0221   -1.4325 H   0  0
   -2.6845    1.5480    1.2583 H   0  0
   -1.3193   -0.1426    0.1178 H   0  0
   -1.5367    0.6655   -1.4535 H   0  0
   -0.7335    5.6110    0.1438 H   0  0
   -4.6415    1.3946   -0.8279 H   0  0
   -3.9498    3.5925    1.2290 H   0  0
   -5.5067   -2.0863   -0.1668 H   0  0
   -5.4978   -0.9822   -1.5625 H   0  0
   -6.3027   -0.4989   -0.0505 H   0  0
  1  2  1  0  0  0
  1  3  1  0  0  0
  3  4  1  0  0  0
  4  5  1  0  0  0
  5  2  1  0  0  0
  3  6  2  0  0  0
  6  7  1  0  0  0
  7  8  1  0  0  0
  8  9  2  0  0  0
  9 10  1  0  0  0
 10 11  2  0  0  0
 11 12  1  0  0  0
 12 13  2  0  0  0
 13  8  1  0  0  0
 11 14  1  0  0  0
  2 15  1  0  0  0
 15 16  1  0  0  0
 16 17  1  0  0  0
 17 18  1  0  0  0
 18  1  1  0  0  0
 15 19  1  0  0  0
 17 20  1  0  0  0
 16 21  1  0  0  0
 20 22  1  0  0  0
 22 23  1  0  0  0
 22 24  2  0  0  0
  2 25  1  0  0  0
  5 26  1  0  0  0
  5 27  1  0  0  0
  7 28  1  0  0  0
  7 29  1  0  0  0
  9 30  1  0  0  0
 10 31  1  0  0  0
 12 32  1  0  0  0
 13 33  1  0  0  0
 15 34  1  0  0  0
 16 35  1  0  0  0
 17 36  1  0  0  0
 18 37  1  0  0  0
 18 38  1  0  0  0
 19 39  1  0  0  0
 20 40  1  0  0  0
 21 41  1  0  0  0
 23 42  1  0  0  0
 23 43  1  0  0  0
 23 44  1  0  0  0
M  END
> <Reference>
González-Cuesta et al., 2022

> <Clean Energy>
30.4904

> <Chemical Formula>
C16H20FN3O3S

> <ForcefieldFFML>
<?xml version="1.0" encoding="UTF-8"?>
<!DOCTYPE ffml SYSTEM "Ffml.dtd">
<ffml version="1.0">
<forcefield name="(Z)-2-Acetamido-5-N,6-S-(N?-p-fluorobenzyliminomethylidene)-1,2-dideoxy-6- thionojirimycin-MMFF" derivedFrom="MMFF" base="MMFF">
<atomTypes>
<atomType
 name="N100"
 element="N"
 mass="14.007"
 annotation=""/>
<atomType
 name="C101"
 element="C"
 mass="12.011"
 annotation=""/>
<atomType
 name="S102"
 element="S"
 mass="32.066"
 annotation=""/>
<atomType
 name="F103"
 element="F"
 mass="18.998"
 annotation=""/>
<atomType
 name="O104"
 element="O"
 mass="16"
 annotation=""/>
<atomType
 name="H105"
 element="H"
 mass="1.008"
 annotation=""/>
</atomTypes>
<parameters>
</parameters>
</forcefield>
</ffml>

> <ForcefieldBase>
MMFF

> <Ki>
50 ± 20nM

> <Forcefield>
MMFF

$$$$
(Z)-2-Acetamido-5-N,6-S-(N?-p-methoxybenzyliminomethylidene)-1,2-dideoxy-6- thionojirimycin
  DSViewer          3D                             0

 48 50  0  0  0  0  0  0  0  0999 V2000
   -0.3218    2.0194   -0.1271 N   0  0
   -0.3584    3.4763   -0.3628 C   0  0  2  0  0  0
    0.9931    1.5192   -0.0838 C   0  0
    2.0460    2.8050   -0.0310 S   0  0
    0.9795    4.1413    0.1621 C   0  0
    1.3775    0.3067   -0.0884 N   0  0
    2.8081    0.1103   -0.0403 C   0  0
    3.2630   -1.3248   -0.0251 C   0  0
    2.3982   -2.3394   -0.0357 C   0  0
    2.9064   -3.7270   -0.0209 C   0  0
    4.2226   -3.9635    0.0025 C   0  0
    5.1570   -2.8430    0.0143 C   0  0
    4.7019   -1.5941    0.0014 C   0  0
    4.7354   -5.2755    0.0162 O   0  0
    3.6893   -6.2555    0.0018 C   0  0
   -1.6016    4.1611    0.1771 C   0  0  2  0  0  0
   -2.8422    3.4270   -0.3431 C   0  0  1  0  0  0
   -2.7808    1.9629    0.1699 C   0  0  2  0  0  0
   -1.4993    1.2279   -0.3775 C   0  0
   -4.0105    4.0643    0.1784 O   0  0
   -1.6089    5.5304   -0.2321 O   0  0
   -3.9874    1.2817   -0.2583 N   0  0
   -4.2559    0.0026    0.0127 C   0  0
   -5.5461   -0.5908   -0.4761 C   0  0
   -3.4693   -0.6976    0.6604 O   0  0
   -0.3714    3.6160   -1.4438 H   0  0
    0.8991    4.4514    1.2039 H   0  0
    1.2785    4.9929   -0.4490 H   0  0
    3.2430    0.5916   -0.9163 H   0  0
    3.1831    0.5915    0.8630 H   0  0
    1.3255   -2.1471   -0.0552 H   0  0
    2.2054   -4.5616   -0.0291 H   0  0
    6.2306   -3.0304    0.0336 H   0  0
    5.4066   -0.7626    0.0107 H   0  0
    4.1260   -7.2541    0.0130 H   0  0
    3.0880   -6.1326   -0.8990 H   0  0
    3.0573   -6.1260    0.8805 H   0  0
   -1.5901    4.1144    1.2661 H   0  0
   -2.8596    3.4433   -1.4329 H   0  0
   -2.7462    1.9707    1.2594 H   0  0
   -1.3972    0.2643    0.1216 H   0  0
   -1.6057    1.0722   -1.4511 H   0  0
   -3.9909    4.0277    1.2276 H   0  0
   -0.7544    6.0126    0.1420 H   0  0
   -4.7050    1.8374   -0.8250 H   0  0
   -5.6051   -1.6353   -0.1704 H   0  0
   -5.5863   -0.5282   -1.5636 H   0  0
   -6.3845   -0.0400   -0.0497 H   0  0
  1  2  1  0  0  0
  1  3  1  0  0  0
  3  4  1  0  0  0
  4  5  1  0  0  0
  5  2  1  0  0  0
  3  6  2  0  0  0
  6  7  1  0  0  0
  7  8  1  0  0  0
  8  9  2  0  0  0
  9 10  1  0  0  0
 10 11  2  0  0  0
 11 12  1  0  0  0
 12 13  2  0  0  0
 13  8  1  0  0  0
 11 14  1  0  0  0
 14 15  1  0  0  0
  2 16  1  0  0  0
 16 17  1  0  0  0
 17 18  1  0  0  0
 18 19  1  0  0  0
 19  1  1  0  0  0
 17 20  1  0  0  0
 16 21  1  0  0  0
 18 22  1  0  0  0
 22 23  1  0  0  0
 23 24  1  0  0  0
 23 25  2  0  0  0
  2 26  1  0  0  0
  5 27  1  0  0  0
  5 28  1  0  0  0
  7 29  1  0  0  0
  7 30  1  0  0  0
  9 31  1  0  0  0
 10 32  1  0  0  0
 12 33  1  0  0  0
 13 34  1  0  0  0
 15 35  1  0  0  0
 15 36  1  0  0  0
 15 37  1  0  0  0
 16 38  1  0  0  0
 17 39  1  0  0  0
 18 40  1  0  0  0
 19 41  1  0  0  0
 19 42  1  0  0  0
 20 43  1  0  0  0
 21 44  1  0  0  0
 22 45  1  0  0  0
 24 46  1  0  0  0
 24 47  1  0  0  0
 24 48  1  0  0  0
M  END
> <Reference>
González-Cuesta et al., 2022

> <Clean Energy>
31.2127

> <Chemical Formula>
C17H23N3O4S

> <ForcefieldFFML>
<?xml version="1.0" encoding="UTF-8"?>
<!DOCTYPE ffml SYSTEM "Ffml.dtd">
<ffml version="1.0">
<forcefield name="(Z)-2-Acetamido-5-N,6-S-(N?-p-methoxybenzyliminomethylidene)-1,2-dideoxy-6- thionojirimycin-MMFF" derivedFrom="MMFF" base="MMFF">
<atomTypes>
<atomType
 name="N100"
 element="N"
 mass="14.007"
 annotation=""/>
<atomType
 name="C101"
 element="C"
 mass="12.011"
 annotation=""/>
<atomType
 name="S102"
 element="S"
 mass="32.066"
 annotation=""/>
<atomType
 name="O103"
 element="O"
 mass="16"
 annotation=""/>
<atomType
 name="H104"
 element="H"
 mass="1.008"
 annotation=""/>
</atomTypes>
<parameters>
</parameters>
</forcefield>
</ffml>

> <ForcefieldBase>
MMFF

> <Ki>
30 ± 10nM

> <Forcefield>
MMFF

$$$$
(Z)-2-Acetamido-5-N,6-S-(N?-p-trifluoromethylbenzyliminomethylidene)-1,2-dideoxy-6- thionojirimycin
  DSViewer          3D                             0

 47 49  0  0  0  0  0  0  0  0999 V2000
   -0.7671    2.2232   -0.1020 N   0  0
   -0.7989    3.6808   -0.3478 C   0  0  2  0  0  0
    0.5499    1.7233   -0.0422 C   0  0
    1.6016    3.0087    0.0143 S   0  0
    0.5338    4.3473    0.1867 C   0  0
    0.9377    0.5078   -0.0367 N   0  0
    2.3716    0.3223    0.0293 C   0  0
    2.8571   -1.1075    0.0052 C   0  0
    2.0206   -2.1436   -0.0446 C   0  0
    2.5670   -3.5196   -0.0689 C   0  0
    3.8886   -3.7160   -0.0414 C   0  0
    4.7919   -2.5764    0.0139 C   0  0
    4.3041   -1.3403    0.0363 C   0  0
    4.4606   -5.1058   -0.0683 C   0  0
    3.6483   -5.9455   -0.7992 F   0  0
    5.7541   -5.0797   -0.5541 F   0  0
    4.4970   -5.5787    1.2268 F   0  0
   -2.0472    4.3726    0.1742 C   0  0  2  0  0  0
   -3.2840    3.6379   -0.3526 C   0  0  1  0  0  0
   -3.2306    2.1778    0.1726 C   0  0  2  0  0  0
   -1.9449    1.4341   -0.3567 C   0  0
   -2.0475    5.7392   -0.2456 O   0  0
   -4.4355    1.4973   -0.2611 N   0  0
   -4.4558    4.2820    0.1528 O   0  0
   -4.7105    0.2211    0.0168 C   0  0
   -5.9986   -0.3712   -0.4788 C   0  0
   -3.9320   -0.4768    0.6761 O   0  0
   -0.8000    3.8133   -1.4297 H   0  0
    0.4425    4.6645    1.2255 H   0  0
    0.8401    5.1946   -0.4269 H   0  0
    2.8139    0.8387   -0.8227 H   0  0
    2.7243    0.7784    0.9543 H   0  0
    0.9432   -1.9795   -0.0674 H   0  0
    1.8905   -4.3733   -0.1091 H   0  0
    5.8698   -2.7367    0.0370 H   0  0
    4.9865   -0.4914    0.0782 H   0  0
   -2.0468    4.3344    1.2635 H   0  0
   -3.2906    3.6458   -1.4425 H   0  0
   -3.2063    2.1943    1.2622 H   0  0
   -1.8507    0.4743    0.1512 H   0  0
   -2.0416    1.2698   -1.4299 H   0  0
   -1.1960    6.2225    0.1337 H   0  0
   -5.1463    2.0512   -0.8381 H   0  0
   -4.4466    4.2532    1.2024 H   0  0
   -6.0639   -1.4134   -0.1662 H   0  0
   -6.0294   -0.3163   -1.5670 H   0  0
   -6.8387    0.1854   -0.0634 H   0  0
  1  2  1  0  0  0
  1  3  1  0  0  0
  3  4  1  0  0  0
  4  5  1  0  0  0
  5  2  1  0  0  0
  3  6  2  0  0  0
  6  7  1  0  0  0
  7  8  1  0  0  0
  8  9  2  0  0  0
  9 10  1  0  0  0
 10 11  2  0  0  0
 11 12  1  0  0  0
 12 13  2  0  0  0
 13  8  1  0  0  0
 11 14  1  0  0  0
 14 15  1  0  0  0
 14 16  1  0  0  0
 14 17  1  0  0  0
  2 18  1  0  0  0
 18 19  1  0  0  0
 19 20  1  0  0  0
 20 21  1  0  0  0
 21  1  1  0  0  0
 18 22  1  0  0  0
 20 23  1  0  0  0
 19 24  1  0  0  0
 23 25  1  0  0  0
 25 26  1  0  0  0
 25 27  2  0  0  0
  2 28  1  0  0  0
  5 29  1  0  0  0
  5 30  1  0  0  0
  7 31  1  0  0  0
  7 32  1  0  0  0
  9 33  1  0  0  0
 10 34  1  0  0  0
 12 35  1  0  0  0
 13 36  1  0  0  0
 18 37  1  0  0  0
 19 38  1  0  0  0
 20 39  1  0  0  0
 21 40  1  0  0  0
 21 41  1  0  0  0
 22 42  1  0  0  0
 23 43  1  0  0  0
 24 44  1  0  0  0
 26 45  1  0  0  0
 26 46  1  0  0  0
 26 47  1  0  0  0
M  END
> <Reference>
González-Cuesta et al., 2022

> <Clean Energy>
43.2058

> <Chemical Formula>
C17H20F3N3O3S

> <ForcefieldFFML>
<?xml version="1.0" encoding="UTF-8"?>
<!DOCTYPE ffml SYSTEM "Ffml.dtd">
<ffml version="1.0">
<forcefield name="(Z)-2-Acetamido-5-N,6-S-(N?-p-trifluoromethylbenzyliminomethylidene)-1,2-dideoxy-6- thionojirimycin-MMFF" derivedFrom="MMFF" base="MMFF">
<atomTypes>
<atomType
 name="N100"
 element="N"
 mass="14.007"
 annotation=""/>
<atomType
 name="C101"
 element="C"
 mass="12.011"
 annotation=""/>
<atomType
 name="S102"
 element="S"
 mass="32.066"
 annotation=""/>
<atomType
 name="F103"
 element="F"
 mass="18.998"
 annotation=""/>
<atomType
 name="O104"
 element="O"
 mass="16"
 annotation=""/>
<atomType
 name="H105"
 element="H"
 mass="1.008"
 annotation=""/>
</atomTypes>
<parameters>
</parameters>
</forcefield>
</ffml>

> <ForcefieldBase>
MMFF

> <Ki>
50 ± 20nM

> <Forcefield>
MMFF

$$$$
(Z)-2-Acetamido-5-N,6-S-(N?-o-azidomethylbenzyliminomethylidene)-1,2-dideoxy-6- thionojirimycin
  DSViewer          3D                             0

 49 51  0  0  0  0  0  0  0  0999 V2000
   -0.0315    2.0369   -0.0322 N   0  0
    0.0773    3.5475   -0.3550 C   0  0  2  0  0  0
    1.4633    1.2947   -0.0074 C   0  0
    2.6060    2.5236   -0.0545 S   0  0
    1.6313    4.0242    0.0390 C   0  0
    1.8312    0.0207    0.0126 N   0  0
    3.3542   -0.4885    0.0037 C   0  0
    3.7093   -2.0973    0.0004 C   0  0
    2.7758   -3.0571   -0.0000 C   0  0
    3.1850   -4.4687    0.0009 C   0  0
    4.4425   -4.8613    0.0014 C   0  0
    5.4722   -3.8633   -0.0003 C   0  0
    5.1494   -2.5606   -0.0010 C   0  0
    1.3162   -2.6974   -0.0003 C   0  0
   -1.2515    4.5616    0.1408 C   0  0  2  0  0  0
   -2.7625    3.9144   -0.2685 C   0  0  1  0  0  0
   -2.8732    2.3206    0.2189 C   0  0  2  0  0  0
   -1.4806    1.4167   -0.3154 C   0  0
   -1.1481    5.9187   -0.4563 O   0  0
   -4.2498    1.6643   -0.1792 N   0  0
   -3.8681    4.7349    0.3385 O   0  0
   -4.4605    0.3145   -0.1232 C   0  0
   -5.8372   -0.3178   -0.3322 C   0  0
   -3.5365   -0.4339    0.1887 O   0  0
    0.3629   -3.7815   -0.0008 N   0  0
    0.6444   -4.9247    0.0000 N   0  3
    0.9353   -6.0694    0.0009 N   0  5
    0.0533    3.5900   -1.4439 H   0  0
    1.6617    4.4400    1.0462 H   0  0
    1.9976    4.7651   -0.6716 H   0  0
    3.8168   -0.0670   -0.8888 H   0  0
    3.8268   -0.0685    0.8915 H   0  0
    2.4065   -5.2315    0.0012 H   0  0
    4.6948   -5.9217    0.0031 H   0  0
    6.5200   -4.1636   -0.0011 H   0  0
    5.9460   -1.8167   -0.0025 H   0  0
    1.1282   -2.0970   -0.8904 H   0  0
    1.1277   -2.0974    0.8899 H   0  0
   -1.2110    4.6655    1.2251 H   0  0
   -2.8670    3.9486   -1.3530 H   0  0
   -2.8377    2.3275    1.3083 H   0  0
   -1.5183    0.4433    0.1737 H   0  0
   -1.5727    1.2859   -1.3936 H   0  0
   -0.2513    6.3698   -0.1482 H   0  0
   -5.0482    2.2978   -0.5050 H   0  0
   -3.7697    4.7368    1.3839 H   0  0
   -5.7576   -1.4011   -0.2415 H   0  0
   -6.2076   -0.0632   -1.3252 H   0  0
   -6.5290    0.0594    0.4210 H   0  0
 26 27  2  0  0  0
 25 26  2  0  0  0
 14 25  1  0  0  0
  1  2  1  0  0  0
  1  3  1  0  0  0
  3  4  1  0  0  0
  4  5  1  0  0  0
  5  2  1  0  0  0
  3  6  2  0  0  0
  6  7  1  0  0  0
  7  8  1  0  0  0
  8  9  2  0  0  0
  9 10  1  0  0  0
 10 11  2  0  0  0
 11 12  1  0  0  0
 12 13  2  0  0  0
 13  8  1  0  0  0
  9 14  1  0  0  0
  2 15  1  0  0  0
 15 16  1  0  0  0
 16 17  1  0  0  0
 17 18  1  0  0  0
 18  1  1  0  0  0
 15 19  1  0  0  0
 17 20  1  0  0  0
 16 21  1  0  0  0
 20 22  1  0  0  0
 22 23  1  0  0  0
 22 24  2  0  0  0
  2 28  1  0  0  0
  5 29  1  0  0  0
  5 30  1  0  0  0
  7 31  1  0  0  0
  7 32  1  0  0  0
 10 33  1  0  0  0
 11 34  1  0  0  0
 12 35  1  0  0  0
 13 36  1  0  0  0
 14 37  1  0  0  0
 14 38  1  0  0  0
 15 39  1  0  0  0
 16 40  1  0  0  0
 17 41  1  0  0  0
 18 42  1  0  0  0
 18 43  1  0  0  0
 19 44  1  0  0  0
 20 45  1  0  0  0
 21 46  1  0  0  0
 23 47  1  0  0  0
 23 48  1  0  0  0
 23 49  1  0  0  0
M  CHG  2  26   1  27  -1
M  END
> <Reference>
González-Cuesta et al., 2022

> <Clean Energy>
91.5673

> <Chemical Formula>
C17H22N6O3S

> <ForcefieldFFML>
<?xml version="1.0" encoding="UTF-8"?>
<!DOCTYPE ffml SYSTEM "Ffml.dtd">
<ffml version="1.0">
<forcefield name="(Z)-2-Acetamido-5-N,6-S-(N?-o-azidomethylbenzyliminomethylidene)-1,2-dideoxy-6- thionojirimycin-MMFF" derivedFrom="MMFF" base="MMFF">
<atomTypes>
<atomType
 name="N100"
 element="N"
 mass="14.007"
 annotation=""/>
<atomType
 name="C101"
 element="C"
 mass="12.011"
 annotation=""/>
<atomType
 name="S102"
 element="S"
 mass="32.066"
 annotation=""/>
<atomType
 name="O103"
 element="O"
 mass="16"
 annotation=""/>
<atomType
 name="H104"
 element="H"
 mass="1.008"
 annotation=""/>
</atomTypes>
<parameters>
</parameters>
</forcefield>
</ffml>

> <ForcefieldBase>
MMFF

> <Ki>
0.27 ± 0.09nM

> <Forcefield>
MMFF

$$$$
(Z)-2-Acetamido-5-N,6-S-(N?-m-azidomethylbenzyliminomethylidene)-1,2-dideoxy-6- thionojirimycin
  DSViewer          3D                             0

 49 51  0  0  0  0  0  0  0  0999 V2000
   -0.1492    2.5621   -0.0317 N   0  0
   -0.0227    4.0790   -0.3536 C   0  0  2  0  0  0
    1.3368    1.7890   -0.0068 C   0  0
    2.4963    3.0200   -0.0528 S   0  0
    1.5374    4.5385    0.0389 C   0  0
    1.6934    0.5008    0.0125 N   0  0
    3.2180    0.0279    0.0037 C   0  0
    3.5588   -1.5477   -0.0002 C   0  0
    2.5937   -2.4679    0.0004 C   0  0
    2.9414   -3.9024    0.0004 C   0  0
    4.2198   -4.2676    0.0007 C   0  0
    5.2818   -3.3222   -0.0002 C   0  0
    4.9925   -2.0222   -0.0012 C   0  0
    1.8265   -4.9433    0.0010 C   0  0
   -1.3460    5.1104    0.1404 C   0  0  2  0  0  0
   -2.8651    4.4760   -0.2677 C   0  0  1  0  0  0
   -2.9888    2.8815    0.2176 C   0  0  2  0  0  0
   -1.6037    1.9650   -0.3168 C   0  0
   -3.9647    5.3052    0.3414 O   0  0
   -1.2314    6.4668   -0.4596 O   0  0
   -4.3687    2.2338   -0.1818 N   0  0
   -4.5834    0.8846   -0.1240 C   0  0
   -5.9610    0.2552   -0.3297 C   0  0
   -3.6617    0.1343    0.1890 O   0  0
    2.2673   -6.3512   -0.0007 N   0  0
    3.3977   -6.7019    0.0001 N   0  3
    4.5310   -7.0434    0.0009 N   0  5
   -0.0456    4.1217   -1.4425 H   0  0
    1.5735    4.9557    1.0452 H   0  0
    1.9123    5.2734   -0.6734 H   0  0
    3.6771    0.4539   -0.8883 H   0  0
    3.6866    0.4516    0.8920 H   0  0
    1.5479   -2.1608    0.0008 H   0  0
    4.4625   -5.3303    0.0018 H   0  0
    6.3191   -3.6570   -0.0002 H   0  0
    5.8010   -1.2912   -0.0028 H   0  0
    1.2171   -4.7820   -0.8882 H   0  0
    1.2194   -4.7834    0.8921 H   0  0
   -1.3047    5.2164    1.2245 H   0  0
   -2.9705    4.5122   -1.3519 H   0  0
   -2.9539    2.8868    1.3071 H   0  0
   -1.6540    0.9904    0.1688 H   0  0
   -1.6959    1.8392   -1.3955 H   0  0
   -3.8655    5.3055    1.3867 H   0  0
   -0.3309    6.9110   -0.1524 H   0  0
   -5.1638    2.8707   -0.5089 H   0  0
   -5.8835   -0.8281   -0.2378 H   0  0
   -6.3327    0.5094   -1.3223 H   0  0
   -6.6507    0.6347    0.4243 H   0  0
 26 27  2  0  0  0
 25 26  2  0  0  0
 14 25  1  0  0  0
  1  2  1  0  0  0
  1  3  1  0  0  0
  3  4  1  0  0  0
  4  5  1  0  0  0
  5  2  1  0  0  0
  3  6  2  0  0  0
  6  7  1  0  0  0
  7  8  1  0  0  0
  8  9  2  0  0  0
  9 10  1  0  0  0
 10 11  2  0  0  0
 11 12  1  0  0  0
 12 13  2  0  0  0
 13  8  1  0  0  0
 10 14  1  0  0  0
  2 15  1  0  0  0
 15 16  1  0  0  0
 16 17  1  0  0  0
 17 18  1  0  0  0
 18  1  1  0  0  0
 16 19  1  0  0  0
 15 20  1  0  0  0
 17 21  1  0  0  0
 21 22  1  0  0  0
 22 23  1  0  0  0
 22 24  2  0  0  0
  2 28  1  0  0  0
  5 29  1  0  0  0
  5 30  1  0  0  0
  7 31  1  0  0  0
  7 32  1  0  0  0
  9 33  1  0  0  0
 11 34  1  0  0  0
 12 35  1  0  0  0
 13 36  1  0  0  0
 14 37  1  0  0  0
 14 38  1  0  0  0
 15 39  1  0  0  0
 16 40  1  0  0  0
 17 41  1  0  0  0
 18 42  1  0  0  0
 18 43  1  0  0  0
 19 44  1  0  0  0
 20 45  1  0  0  0
 21 46  1  0  0  0
 23 47  1  0  0  0
 23 48  1  0  0  0
 23 49  1  0  0  0
M  CHG  2  26   1  27  -1
M  END
> <Reference>
González-Cuesta et al., 2022

> <Clean Energy>
88.5391

> <Chemical Formula>
C17H22N6O3S

> <ForcefieldFFML>
<?xml version="1.0" encoding="UTF-8"?>
<!DOCTYPE ffml SYSTEM "Ffml.dtd">
<ffml version="1.0">
<forcefield name="(Z)-2-Acetamido-5-N,6-S-(N?-m-azidomethylbenzyliminomethylidene)-1,2-dideoxy-6- thionojirimycin-MMFF" derivedFrom="MMFF" base="MMFF">
<atomTypes>
<atomType
 name="N100"
 element="N"
 mass="14.007"
 annotation=""/>
<atomType
 name="C101"
 element="C"
 mass="12.011"
 annotation=""/>
<atomType
 name="S102"
 element="S"
 mass="32.066"
 annotation=""/>
<atomType
 name="O103"
 element="O"
 mass="16"
 annotation=""/>
<atomType
 name="H104"
 element="H"
 mass="1.008"
 annotation=""/>
</atomTypes>
<parameters>
</parameters>
</forcefield>
</ffml>

> <ForcefieldBase>
MMFF

> <Ki>
0.22 ± 0.07nM

> <Forcefield>
MMFF

$$$$
(Z)-2-Acetamido-5-N,6-S-(N?-p-azidomethylbenzyliminomethylidene)-1,2-dideoxy-6- thionojirimycin
  DSViewer          3D                             0

 49 51  0  0  0  0  0  0  0  0999 V2000
   -1.4527    2.0048   -0.0320 N   0  0
   -1.4940    3.5313   -0.3544 C   0  0  2  0  0  0
    0.1087    1.4100   -0.0068 C   0  0
    1.1274    2.7634   -0.0529 S   0  0
    0.0069    4.1652    0.0370 C   0  0
    0.6027    0.1711    0.0127 N   0  0
    2.1589   -0.1291    0.0041 C   0  0
    2.6578   -1.6545    0.0001 C   0  0
    1.8050   -2.6832    0.0011 C   0  0
    2.3024   -4.0915    0.0010 C   0  0
    3.6111   -4.3387    0.0005 C   0  0
    4.5242   -3.2138   -0.0013 C   0  0
    4.1021   -1.9561   -0.0019 C   0  0
    4.1204   -5.7813    0.0011 C   0  0
   -2.9195    4.4087    0.1401 C   0  0  2  0  0  0
   -4.3582    3.6032   -0.2648 C   0  0  1  0  0  0
   -4.3135    1.9975    0.2215 C   0  0  2  0  0  0
   -2.8416    1.2342   -0.3142 C   0  0
   -5.5403    4.3062    0.3455 O   0  0
   -2.9586    5.7708   -0.4618 O   0  0
   -5.6427    1.2243   -0.1748 N   0  0
   -5.7850   -0.1387   -0.1280 C   0  0
   -7.1435   -0.8255   -0.3319 C   0  0
   -4.8265   -0.8487    0.1750 O   0  0
    5.5900   -5.9396   -0.0009 N   0  0
    6.3655   -5.0444    0.0001 N   0  3
    7.1391   -4.1473    0.0011 N   0  5
   -1.5227    3.5714   -1.4433 H   0  0
   -0.0034    4.5857    1.0426 H   0  0
    0.2970    4.9362   -0.6768 H   0  0
    2.5703    0.3436   -0.8878 H   0  0
    2.5797    0.3420    0.8925 H   0  0
    0.7319   -2.4920    0.0021 H   0  0
    1.5927   -4.9189    0.0015 H   0  0
    5.5967   -3.4079   -0.0023 H   0  0
    4.8261   -1.1413   -0.0038 H   0  0
    3.7288   -6.2755   -0.8879 H   0  0
    3.7314   -6.2738    0.8924 H   0  0
   -2.8884    4.5195    1.2240 H   0  0
   -4.4693    3.6280   -1.3488 H   0  0
   -4.2762    2.0070    1.3108 H   0  0
   -2.7808    0.2632    0.1772 H   0  0
   -2.9220    1.0922   -1.3919 H   0  0
   -5.4384    4.3206    1.3905 H   0  0
   -2.1127    6.3131   -0.1569 H   0  0
   -6.4813    1.8043   -0.4992 H   0  0
   -7.0206   -1.9057   -0.2531 H   0  0
   -7.5331   -0.5757   -1.3188 H   0  0
   -7.8424   -0.4834    0.4314 H   0  0
 26 27  2  0  0  0
 25 26  2  0  0  0
 14 25  1  0  0  0
  1  2  1  0  0  0
  1  3  1  0  0  0
  3  4  1  0  0  0
  4  5  1  0  0  0
  5  2  1  0  0  0
  3  6  2  0  0  0
  6  7  1  0  0  0
  7  8  1  0  0  0
  8  9  2  0  0  0
  9 10  1  0  0  0
 10 11  2  0  0  0
 11 12  1  0  0  0
 12 13  2  0  0  0
 13  8  1  0  0  0
 11 14  1  0  0  0
  2 15  1  0  0  0
 15 16  1  0  0  0
 16 17  1  0  0  0
 17 18  1  0  0  0
 18  1  1  0  0  0
 16 19  1  0  0  0
 15 20  1  0  0  0
 17 21  1  0  0  0
 21 22  1  0  0  0
 22 23  1  0  0  0
 22 24  2  0  0  0
  2 28  1  0  0  0
  5 29  1  0  0  0
  5 30  1  0  0  0
  7 31  1  0  0  0
  7 32  1  0  0  0
  9 33  1  0  0  0
 10 34  1  0  0  0
 12 35  1  0  0  0
 13 36  1  0  0  0
 14 37  1  0  0  0
 14 38  1  0  0  0
 15 39  1  0  0  0
 16 40  1  0  0  0
 17 41  1  0  0  0
 18 42  1  0  0  0
 18 43  1  0  0  0
 19 44  1  0  0  0
 20 45  1  0  0  0
 21 46  1  0  0  0
 23 47  1  0  0  0
 23 48  1  0  0  0
 23 49  1  0  0  0
M  CHG  2  26   1  27  -1
M  END
> <Reference>
González-Cuesta et al., 2022

> <Clean Energy>
85.5421

> <Chemical Formula>
C17H22N6O3S

> <ForcefieldFFML>
<?xml version="1.0" encoding="UTF-8"?>
<!DOCTYPE ffml SYSTEM "Ffml.dtd">
<ffml version="1.0">
<forcefield name="(Z)-2-Acetamido-5-N,6-S-(N?-p-azidomethylbenzyliminomethylidene)-1,2-dideoxy-6- thionojirimycin-MMFF" derivedFrom="MMFF" base="MMFF">
<atomTypes>
<atomType
 name="N100"
 element="N"
 mass="14.007"
 annotation=""/>
<atomType
 name="C101"
 element="C"
 mass="12.011"
 annotation=""/>
<atomType
 name="S102"
 element="S"
 mass="32.066"
 annotation=""/>
<atomType
 name="O103"
 element="O"
 mass="16"
 annotation=""/>
<atomType
 name="H104"
 element="H"
 mass="1.008"
 annotation=""/>
</atomTypes>
<parameters>
</parameters>
</forcefield>
</ffml>

> <ForcefieldBase>
MMFF

> <Ki>
0.4 ± 0.2nM

> <Forcefield>
MMFF

$$$$
(Z)-2-Acetamido-5-N,6-S-(N?-2-phenylethyliminomethylidene)-1,2-dideoxy-6- thionojirimycin
  DSViewer          3D                             0

 47 49  0  0  0  0  0  0  0  0999 V2000
   -1.1319    0.8986   -0.1332 N   0  0
   -1.1991    2.3552   -0.3603 C   0  0  2  0  0  0
    0.1865    0.4337   -0.0904 C   0  0
    1.2230    1.7223   -0.0308 S   0  0
    0.1283    3.0438    0.1660 C   0  0
    0.5565   -0.7937   -0.1027 N   0  0
    1.9699   -1.0759   -0.0581 C   0  0
    2.2267   -2.5977   -0.0420 C   0  0
    3.7163   -2.8677   -0.0167 C   0  0
    4.1630   -4.1239   -0.0021 C   0  0
    5.6058   -4.3914    0.0191 C   0  0
    6.4728   -3.3801    0.0230 C   0  0
    5.9855   -1.9984    0.0068 C   0  0
    4.6757   -1.7535   -0.0119 C   0  0
   -2.4651    3.0021    0.1832 C   0  0  2  0  0  0
   -3.6869    2.2351   -0.3425 C   0  0  1  0  0  0
   -3.5844    0.7702    0.1625 C   0  0  2  0  0  0
   -2.2857    0.0825   -0.3886 C   0  0
   -4.8738    2.8343    0.1810 O   0  0
   -2.5112    4.3733   -0.2180 O   0  0
   -4.7667    0.0512   -0.2701 N   0  0
   -4.9986   -1.2324    0.0167 C   0  0
   -6.2644   -1.8731   -0.4772 C   0  0
   -4.1977   -1.8978    0.6825 O   0  0
   -1.2161    2.5001   -1.4405 H   0  0
    0.0427    3.3503    1.2085 H   0  0
    0.4116    3.9020   -0.4434 H   0  0
    2.4482   -0.6425   -0.9364 H   0  0
    2.3940   -0.6328    0.8430 H   0  0
    1.7654   -3.0328    0.8447 H   0  0
    1.7930   -3.0470   -0.9353 H   0  0
    3.4557   -4.9532   -0.0059 H   0  0
    5.9685   -5.4192    0.0317 H   0  0
    7.5442   -3.5803    0.0381 H   0  0
    6.6945   -1.1705    0.0100 H   0  0
    4.3148   -0.7251   -0.0236 H   0  0
   -2.4529    2.9496    1.2719 H   0  0
   -3.7040    2.2567   -1.4322 H   0  0
   -3.5494    0.7724    1.2519 H   0  0
   -2.1566   -0.8826    0.1011 H   0  0
   -2.3881   -0.0657   -1.4636 H   0  0
   -4.8543    2.7921    1.2300 H   0  0
   -1.6714    4.8776    0.1601 H   0  0
   -5.4940    0.5783   -0.8515 H   0  0
   -6.2941   -2.9145   -0.1567 H   0  0
   -6.2944   -1.8276   -1.5659 H   0  0
   -7.1243   -1.3429   -0.0679 H   0  0
  1  2  1  0  0  0
  1  3  1  0  0  0
  3  4  1  0  0  0
  4  5  1  0  0  0
  5  2  1  0  0  0
  3  6  2  0  0  0
  6  7  1  0  0  0
  7  8  1  0  0  0
  9  8  1  0  0  0
  9 10  2  0  0  0
 10 11  1  0  0  0
 11 12  2  0  0  0
 12 13  1  0  0  0
 13 14  2  0  0  0
 14  9  1  0  0  0
  2 15  1  0  0  0
 15 16  1  0  0  0
 16 17  1  0  0  0
 17 18  1  0  0  0
 18  1  1  0  0  0
 16 19  1  0  0  0
 15 20  1  0  0  0
 17 21  1  0  0  0
 21 22  1  0  0  0
 22 23  1  0  0  0
 22 24  2  0  0  0
  2 25  1  0  0  0
  5 26  1  0  0  0
  5 27  1  0  0  0
  7 28  1  0  0  0
  7 29  1  0  0  0
  8 30  1  0  0  0
  8 31  1  0  0  0
 10 32  1  0  0  0
 11 33  1  0  0  0
 12 34  1  0  0  0
 13 35  1  0  0  0
 14 36  1  0  0  0
 15 37  1  0  0  0
 16 38  1  0  0  0
 17 39  1  0  0  0
 18 40  1  0  0  0
 18 41  1  0  0  0
 19 42  1  0  0  0
 20 43  1  0  0  0
 21 44  1  0  0  0
 23 45  1  0  0  0
 23 46  1  0  0  0
 23 47  1  0  0  0
M  END
> <Reference>
González-Cuesta et al., 2022

> <Clean Energy>
29.421

> <Chemical Formula>
C17H23N3O3S

> <ForcefieldFFML>
<?xml version="1.0" encoding="UTF-8"?>
<!DOCTYPE ffml SYSTEM "Ffml.dtd">
<ffml version="1.0">
<forcefield name="(Z)-2-Acetamido-5-N,6-S-(N?-2-phenylethyliminomethylidene)-1,2-dideoxy-6- thionojirimycin-MMFF" derivedFrom="MMFF" base="MMFF">
<atomTypes>
<atomType
 name="N100"
 element="N"
 mass="14.007"
 annotation=""/>
<atomType
 name="C101"
 element="C"
 mass="12.011"
 annotation=""/>
<atomType
 name="S102"
 element="S"
 mass="32.066"
 annotation=""/>
<atomType
 name="O103"
 element="O"
 mass="16"
 annotation=""/>
<atomType
 name="H104"
 element="H"
 mass="1.008"
 annotation=""/>
</atomTypes>
<parameters>
</parameters>
</forcefield>
</ffml>

> <ForcefieldBase>
MMFF

> <Ki>
0.9 ± 0.3nM

> <Forcefield>
MMFF

$$$$
(Z)-2-Propionamido-5-N,6-S-(N?-benzyliminomethylidene)-1,2-dideoxy-6-thionojirimycin
  DSViewer          3D                             0

 47 49  0  0  0  0  0  0  0  0999 V2000
   -0.1834    1.1392   -0.1287 N   0  0
   -0.2812    2.5895   -0.3629 C   0  0  2  0  0  0
    1.1511    0.6864   -0.0901 C   0  0
    2.1501    2.0207   -0.0371 S   0  0
    1.0296    3.3092    0.1615 C   0  0
    1.5840   -0.4982   -0.0978 N   0  0
    3.0206   -0.6535   -0.0540 C   0  0
    3.4920   -2.0766   -0.0294 C   0  0
    2.6228   -3.0923   -0.0351 C   0  0
    3.1232   -4.4738   -0.0110 C   0  0
    4.4338   -4.7148    0.0160 C   0  0
    5.3823   -3.6001    0.0223 C   0  0
    4.9322   -2.3494    0.0010 C   0  0
   -1.5491    3.2233    0.1782 C   0  0  2  0  0  0
   -2.7580    2.4407   -0.3432 C   0  0  1  0  0  0
   -2.6410    0.9816    0.1680 C   0  0  2  0  0  0
   -1.3315    0.2949   -0.3796 C   0  0
   -3.8179    0.2608   -0.2681 N   0  0
   -1.6116    4.5907   -0.2297 O   0  0
   -3.9513    3.0303    0.1777 O   0  0
   -4.0705   -1.0101    0.0379 C   0  0
   -5.3337   -1.6421   -0.4764 C   0  0
   -3.2876   -1.6721    0.7326 O   0  0
   -5.3937   -3.1193   -0.0552 C   0  0
   -0.3010    2.7290   -1.4437 H   0  0
    0.9384    3.6130    1.2043 H   0  0
    1.2912    4.1743   -0.4479 H   0  0
    3.4421   -0.1706   -0.9356 H   0  0
    3.3892   -0.1574    0.8439 H   0  0
    1.5507   -2.8972   -0.0575 H   0  0
    2.4189   -5.3057   -0.0153 H   0  0
    4.7990   -5.7416    0.0334 H   0  0
    6.4545   -3.7948    0.0445 H   0  0
    5.6395   -1.5201    0.0061 H   0  0
   -1.5355    3.1758    1.2670 H   0  0
   -2.7751    2.4571   -1.4330 H   0  0
   -2.6107    0.9876    1.2575 H   0  0
   -1.1906   -0.6628    0.1213 H   0  0
   -1.4317    0.1329   -1.4529 H   0  0
   -4.5293    0.7818   -0.8741 H   0  0
   -0.7767    5.1065    0.1438 H   0  0
   -3.9311    2.9940    1.2269 H   0  0
   -6.1942   -1.1146   -0.0648 H   0  0
   -5.3528   -1.5763   -1.5642 H   0  0
   -6.3125   -3.5682   -0.4326 H   0  0
   -5.3763   -3.1886    1.0324 H   0  0
   -4.5351   -3.6501   -0.4665 H   0  0
  1  2  1  0  0  0
  1  3  1  0  0  0
  3  4  1  0  0  0
  4  5  1  0  0  0
  5  2  1  0  0  0
  3  6  2  0  0  0
  6  7  1  0  0  0
  7  8  1  0  0  0
  8  9  2  0  0  0
  9 10  1  0  0  0
 10 11  2  0  0  0
 11 12  1  0  0  0
 12 13  2  0  0  0
 13  8  1  0  0  0
  2 14  1  0  0  0
 14 15  1  0  0  0
 15 16  1  0  0  0
 16 17  1  0  0  0
 17  1  1  0  0  0
 16 18  1  0  0  0
 14 19  1  0  0  0
 15 20  1  0  0  0
 18 21  1  0  0  0
 21 22  1  0  0  0
 21 23  2  0  0  0
 22 24  1  0  0  0
  2 25  1  0  0  0
  5 26  1  0  0  0
  5 27  1  0  0  0
  7 28  1  0  0  0
  7 29  1  0  0  0
  9 30  1  0  0  0
 10 31  1  0  0  0
 11 32  1  0  0  0
 12 33  1  0  0  0
 13 34  1  0  0  0
 14 35  1  0  0  0
 15 36  1  0  0  0
 16 37  1  0  0  0
 17 38  1  0  0  0
 17 39  1  0  0  0
 18 40  1  0  0  0
 19 41  1  0  0  0
 20 42  1  0  0  0
 22 43  1  0  0  0
 22 44  1  0  0  0
 24 45  1  0  0  0
 24 46  1  0  0  0
 24 47  1  0  0  0
M  END
> <Reference>
González-Cuesta et al., 2022

> <Clean Energy>
30.2739

> <Chemical Formula>
C17H23N3O3S

> <ForcefieldFFML>
<?xml version="1.0" encoding="UTF-8"?>
<!DOCTYPE ffml SYSTEM "Ffml.dtd">
<ffml version="1.0">
<forcefield name="(Z)-2-Propionamido-5-N,6-S-(N?-benzyliminomethylidene)-1,2-dideoxy-6-thionojirimycin-MMFF" derivedFrom="MMFF" base="MMFF">
<atomTypes>
<atomType
 name="N100"
 element="N"
 mass="14.007"
 annotation=""/>
<atomType
 name="C101"
 element="C"
 mass="12.011"
 annotation=""/>
<atomType
 name="S102"
 element="S"
 mass="32.066"
 annotation=""/>
<atomType
 name="O103"
 element="O"
 mass="16"
 annotation=""/>
<atomType
 name="H104"
 element="H"
 mass="1.008"
 annotation=""/>
</atomTypes>
<parameters>
</parameters>
</forcefield>
</ffml>

> <ForcefieldBase>
MMFF

> <Ki>
8 ± 3nM

> <Forcefield>
MMFF

$$$$
(Z)-2-Butyramido-5-N,6-S-(N?-benzyliminomethylidene)-1,2-dideoxy-6-thionojirimycin
  DSViewer          3D                             0

 50 52  0  0  0  0  0  0  0  0999 V2000
    0.2738    1.1816   -0.1366 N   0  0
    0.1730    2.6339   -0.3854 C   0  0  2  0  0  0
    1.6111    0.7440   -0.0990 C   0  0
    2.6068    2.0726   -0.0661 S   0  0
    1.4841    3.3617    0.1227 C   0  0
    2.0473   -0.4519   -0.0950 N   0  0
    3.4852   -0.5948   -0.0552 C   0  0
    3.9594   -2.0197   -0.0296 C   0  0
    3.0984   -3.0346   -0.0342 C   0  0
    3.6025   -4.4159   -0.0095 C   0  0
    4.9148   -4.6509    0.0170 C   0  0
    5.8583   -3.5332    0.0222 C   0  0
    5.4035   -2.2825    0.0002 C   0  0
   -1.0917    3.2691    0.1604 C   0  0  2  0  0  0
   -2.3039    2.4803   -0.3397 C   0  0  1  0  0  0
   -2.1782    1.0265    0.1867 C   0  0  2  0  0  0
   -0.8747    0.3361   -0.3668 C   0  0
   -3.3625    0.3046   -0.2228 N   0  0
   -1.1608    4.6328   -0.2608 O   0  0
   -3.4919    3.0735    0.1883 O   0  0
   -3.6182   -0.9607    0.1078 C   0  0
   -4.9022   -1.5809   -0.3681 C   0  0
   -2.8319   -1.6170    0.8001 O   0  0
   -5.0055   -3.0350    0.1167 C   0  0
   -6.3425   -3.6330   -0.3617 C   0  0
    0.1445    2.7632   -1.4673 H   0  0
    1.3978    3.6780    1.1623 H   0  0
    1.7406    4.2198   -0.4985 H   0  0
    3.9018   -0.1114   -0.9388 H   0  0
    3.8540   -0.0953    0.8407 H   0  0
    2.0256   -2.8431   -0.0562 H   0  0
    2.9011   -5.2503   -0.0129 H   0  0
    5.2845   -5.6761    0.0348 H   0  0
    6.9312   -3.7241    0.0439 H   0  0
    6.1065   -1.4495    0.0045 H   0  0
   -1.0675    3.2331    1.2495 H   0  0
   -2.3328    2.4851   -1.4293 H   0  0
   -2.1339    1.0463    1.2756 H   0  0
   -0.7282   -0.6166    0.1421 H   0  0
   -0.9857    0.1634   -1.4373 H   0  0
   -4.0784    0.8188   -0.8295 H   0  0
   -0.3240    5.1541    0.1006 H   0  0
   -3.4601    3.0476    1.2376 H   0  0
   -5.7438   -1.0106    0.0250 H   0  0
   -4.9276   -1.5628   -1.4576 H   0  0
   -4.1789   -3.6156   -0.2928 H   0  0
   -4.9635   -3.0603    1.2056 H   0  0
   -6.4221   -4.6652   -0.0209 H   0  0
   -6.3841   -3.6062   -1.4506 H   0  0
   -7.1684   -3.0511    0.0474 H   0  0
  1  2  1  0  0  0
  1  3  1  0  0  0
  3  4  1  0  0  0
  4  5  1  0  0  0
  5  2  1  0  0  0
  3  6  2  0  0  0
  6  7  1  0  0  0
  7  8  1  0  0  0
  8  9  2  0  0  0
  9 10  1  0  0  0
 10 11  2  0  0  0
 11 12  1  0  0  0
 12 13  2  0  0  0
 13  8  1  0  0  0
  2 14  1  0  0  0
 14 15  1  0  0  0
 15 16  1  0  0  0
 16 17  1  0  0  0
 17  1  1  0  0  0
 16 18  1  0  0  0
 14 19  1  0  0  0
 15 20  1  0  0  0
 18 21  1  0  0  0
 21 22  1  0  0  0
 21 23  2  0  0  0
 22 24  1  0  0  0
 24 25  1  0  0  0
  2 26  1  0  0  0
  5 27  1  0  0  0
  5 28  1  0  0  0
  7 29  1  0  0  0
  7 30  1  0  0  0
  9 31  1  0  0  0
 10 32  1  0  0  0
 11 33  1  0  0  0
 12 34  1  0  0  0
 13 35  1  0  0  0
 14 36  1  0  0  0
 15 37  1  0  0  0
 16 38  1  0  0  0
 17 39  1  0  0  0
 17 40  1  0  0  0
 18 41  1  0  0  0
 19 42  1  0  0  0
 20 43  1  0  0  0
 22 44  1  0  0  0
 22 45  1  0  0  0
 24 46  1  0  0  0
 24 47  1  0  0  0
 25 48  1  0  0  0
 25 49  1  0  0  0
 25 50  1  0  0  0
M  END
> <Reference>
González-Cuesta et al., 2022

> <Clean Energy>
30.1674

> <Chemical Formula>
C18H25N3O3S

> <ForcefieldFFML>
<?xml version="1.0" encoding="UTF-8"?>
<!DOCTYPE ffml SYSTEM "Ffml.dtd">
<ffml version="1.0">
<forcefield name="(Z)-2-Butyramido-5-N,6-S-(N?-benzyliminomethylidene)-1,2-dideoxy-6-thionojirimycin-MMFF" derivedFrom="MMFF" base="MMFF">
<atomTypes>
<atomType
 name="N100"
 element="N"
 mass="14.007"
 annotation=""/>
<atomType
 name="C101"
 element="C"
 mass="12.011"
 annotation=""/>
<atomType
 name="S102"
 element="S"
 mass="32.066"
 annotation=""/>
<atomType
 name="O103"
 element="O"
 mass="16"
 annotation=""/>
<atomType
 name="H104"
 element="H"
 mass="1.008"
 annotation=""/>
</atomTypes>
<parameters>
</parameters>
</forcefield>
</ffml>

> <ForcefieldBase>
MMFF

> <Ki>
900 ± 300nM

> <Forcefield>
MMFF

$$$$
2-Isobutyramido-5-N,6-S-(N?-benzyliminomethylidene)-1,2-dideoxy-6-thionojirimycin
  DSViewer          3D                             0

 50 52  0  0  0  0  0  0  0  0999 V2000
    0.2405    1.1236   -0.1202 N   0  0
    0.1181    2.5546   -0.4568 C   0  0  2  0  0  0
    1.5814    0.6916   -0.1119 C   0  0
    2.5701    2.0227   -0.2091 S   0  0
    1.4493    3.3187   -0.0620 C   0  0
    2.0246   -0.4993   -0.0466 N   0  0
    3.4643   -0.6362   -0.0536 C   0  0
    3.9457   -2.0588   -0.0246 C   0  0
    3.0889   -3.0777   -0.0105 C   0  0
    3.5991   -4.4566    0.0153 C   0  0
    4.9125   -4.6862    0.0242 C   0  0
    5.8515   -3.5647    0.0089 C   0  0
    5.3913   -2.3159   -0.0143 C   0  0
   -1.1143    3.2203    0.1216 C   0  0  2  0  0  0
   -2.3559    2.4021   -0.2418 C   0  0  1  0  0  0
   -2.1886    0.9877    0.3748 C   0  0  2  0  0  0
   -0.9176    0.2623   -0.2211 C   0  0
   -3.4317    0.2592    0.1330 N   0  0
   -1.2155    4.5543   -0.3800 O   0  0
   -3.5032    3.0334    0.3281 O   0  0
   -3.6128   -1.0608    0.2708 C   0  0
   -4.9873   -1.6201    0.0186 C   0  0
   -2.7020   -1.8179    0.6175 O   0  0
   -5.8830   -0.6647   -0.7923 C   0  0
   -4.9577   -3.0636   -0.5135 C   0  0
    0.0295    2.6163   -1.5414 H   0  0
    1.4087    3.7083    0.9552 H   0  0
    1.6729    4.1307   -0.7540 H   0  0
    3.8485   -0.1633   -0.9574 H   0  0
    3.8609   -0.1229    0.8224 H   0  0
    2.0151   -2.8908   -0.0179 H   0  0
    2.9013   -5.2938    0.0272 H   0  0
    5.2866   -5.7098    0.0429 H   0  0
    6.9254   -3.7511    0.0164 H   0  0
    6.0909   -1.4802   -0.0258 H   0  0
   -1.0201    3.2568    1.2069 H   0  0
   -2.4603    2.3332   -1.3246 H   0  0
   -2.0534    1.0935    1.4512 H   0  0
   -0.7330   -0.6563    0.3357 H   0  0
   -1.0979    0.0226   -1.2690 H   0  0
   -4.2768    0.8340   -0.1839 H   0  0
   -0.3615    5.0987   -0.1028 H   0  0
   -3.3974    3.0761    1.3719 H   0  0
   -5.4545   -1.6863    1.0012 H   0  0
   -6.8608   -1.1223   -0.9425 H   0  0
   -5.4222   -0.4676   -1.7603 H   0  0
   -6.0008    0.2728   -0.2489 H   0  0
   -5.9775   -3.4123   -0.6761 H   0  0
   -4.4651   -3.7093    0.2135 H   0  0
   -4.4097   -3.0930   -1.4552 H   0  0
  1  2  1  0  0  0
  1  3  1  0  0  0
  3  4  1  0  0  0
  4  5  1  0  0  0
  5  2  1  0  0  0
  3  6  2  0  0  0
  6  7  1  0  0  0
  7  8  1  0  0  0
  8  9  2  0  0  0
  9 10  1  0  0  0
 10 11  2  0  0  0
 11 12  1  0  0  0
 12 13  2  0  0  0
 13  8  1  0  0  0
  2 14  1  0  0  0
 14 15  1  0  0  0
 15 16  1  0  0  0
 16 17  1  0  0  0
 17  1  1  0  0  0
 16 18  1  0  0  0
 14 19  1  0  0  0
 15 20  1  0  0  0
 18 21  1  0  0  0
 21 22  1  0  0  0
 21 23  2  0  0  0
 22 24  1  0  0  0
 22 25  1  0  0  0
  2 26  1  0  0  0
  5 27  1  0  0  0
  5 28  1  0  0  0
  7 29  1  0  0  0
  7 30  1  0  0  0
  9 31  1  0  0  0
 10 32  1  0  0  0
 11 33  1  0  0  0
 12 34  1  0  0  0
 13 35  1  0  0  0
 14 36  1  0  0  0
 15 37  1  0  0  0
 16 38  1  0  0  0
 17 39  1  0  0  0
 17 40  1  0  0  0
 18 41  1  0  0  0
 19 42  1  0  0  0
 20 43  1  0  0  0
 22 44  1  0  0  0
 24 45  1  0  0  0
 24 46  1  0  0  0
 24 47  1  0  0  0
 25 48  1  0  0  0
 25 49  1  0  0  0
 25 50  1  0  0  0
M  END
> <Reference>
González-Cuesta et al., 2022

> <Clean Energy>
35.3734

> <Chemical Formula>
C18H25N3O3S

> <ForcefieldFFML>
<?xml version="1.0" encoding="UTF-8"?>
<!DOCTYPE ffml SYSTEM "Ffml.dtd">
<ffml version="1.0">
<forcefield name="2-Isobutyramido-5-N,6-S-(N?-benzyliminomethylidene)-1,2-dideoxy-6-thionojirimycin-MMFF" derivedFrom="MMFF" base="MMFF">
<atomTypes>
<atomType
 name="N100"
 element="N"
 mass="14.007"
 annotation=""/>
<atomType
 name="C101"
 element="C"
 mass="12.011"
 annotation=""/>
<atomType
 name="S102"
 element="S"
 mass="32.066"
 annotation=""/>
<atomType
 name="O103"
 element="O"
 mass="16"
 annotation=""/>
<atomType
 name="H104"
 element="H"
 mass="1.008"
 annotation=""/>
</atomTypes>
<parameters>
</parameters>
</forcefield>
</ffml>

> <ForcefieldBase>
MMFF

> <Ki>
300 ± 100nM

> <Forcefield>
MMFF

$$$$
(Z)-2-N?-Ethylthioureido-5-N,6-S-(N?-benzyliminomethylidene)-1,2-dideoxy-6- thionojirimycin
  DSViewer          3D                             0

 49 51  0  0  0  0  0  0  0  0999 V2000
    0.2857    1.2022   -0.1557 N   0  0
    0.1719    2.6599   -0.3795 C   0  0  2  0  0  0
    1.6243    0.7867   -0.1064 C   0  0
    2.6093    2.1128   -0.0442 S   0  0
    1.4719    3.3923    0.1491 C   0  0
    2.0632   -0.4214   -0.1126 N   0  0
    3.4994   -0.5643   -0.0571 C   0  0
    3.9586   -1.9980   -0.0318 C   0  0
    3.0929   -3.0015   -0.0418 C   0  0
    3.5827   -4.3894   -0.0171 C   0  0
    4.8935   -4.6352    0.0147 C   0  0
    5.8460   -3.5265    0.0258 C   0  0
    5.4029   -2.2697    0.0041 C   0  0
   -1.1064    3.2665    0.1730 C   0  0  2  0  0  0
   -2.3077    2.4677   -0.3450 C   0  0  1  0  0  0
   -2.1599    1.0014    0.1550 C   0  0  2  0  0  0
   -0.8446    0.3540   -0.4123 C   0  0
   -3.3317    0.2570   -0.2687 N   0  0
   -1.1932    4.6375   -0.2236 O   0  0
   -3.5056    3.0340    0.1904 O   0  0
   -3.5934   -1.0879    0.0740 C   0  0
   -4.8161   -1.6500   -0.3043 N   0  0
   -2.5689   -1.9528    0.8831 S   0  0
   -5.1195   -3.0109    0.0295 C   0  0
   -6.6005   -3.2971   -0.2824 C   0  0
    0.1469    2.8090   -1.4590 H   0  0
    1.3732    3.6957    1.1914 H   0  0
    1.7270    4.2596   -0.4597 H   0  0
    3.9285   -0.0799   -0.9343 H   0  0
    3.8608   -0.0701    0.8447 H   0  0
    2.0220   -2.7998   -0.0682 H   0  0
    2.8736   -5.2172   -0.0248 H   0  0
    5.2545   -5.6635    0.0325 H   0  0
    6.9170   -3.7273    0.0518 H   0  0
    6.1123   -1.4422    0.0128 H   0  0
   -1.0850    3.2115    1.2614 H   0  0
   -2.3343    2.4926   -1.4344 H   0  0
   -2.1142    1.0011    1.2440 H   0  0
   -0.6845   -0.6115    0.0677 H   0  0
   -0.9498    0.2125   -1.4879 H   0  0
   -4.0470    0.7623   -0.8834 H   0  0
   -0.3657    5.1639    0.1514 H   0  0
   -3.4759    2.9900    1.2391 H   0  0
   -5.5282   -1.0624   -0.8451 H   0  0
   -4.4889   -3.6784   -0.5578 H   0  0
   -4.9334   -3.1749    1.0909 H   0  0
   -6.8324   -4.3315   -0.0290 H   0  0
   -6.7871   -3.1330   -1.3437 H   0  0
   -7.2315   -2.6296    0.3046 H   0  0
  1  2  1  0  0  0
  1  3  1  0  0  0
  3  4  1  0  0  0
  4  5  1  0  0  0
  5  2  1  0  0  0
  3  6  2  0  0  0
  6  7  1  0  0  0
  7  8  1  0  0  0
  8  9  2  0  0  0
  9 10  1  0  0  0
 10 11  2  0  0  0
 11 12  1  0  0  0
 12 13  2  0  0  0
 13  8  1  0  0  0
  2 14  1  0  0  0
 14 15  1  0  0  0
 15 16  1  0  0  0
 16 17  1  0  0  0
 17  1  1  0  0  0
 16 18  1  0  0  0
 14 19  1  0  0  0
 15 20  1  0  0  0
 18 21  1  0  0  0
 21 22  1  0  0  0
 21 23  2  0  0  0
 22 24  1  0  0  0
 24 25  1  0  0  0
  2 26  1  0  0  0
  5 27  1  0  0  0
  5 28  1  0  0  0
  7 29  1  0  0  0
  7 30  1  0  0  0
  9 31  1  0  0  0
 10 32  1  0  0  0
 11 33  1  0  0  0
 12 34  1  0  0  0
 13 35  1  0  0  0
 14 36  1  0  0  0
 15 37  1  0  0  0
 16 38  1  0  0  0
 17 39  1  0  0  0
 17 40  1  0  0  0
 18 41  1  0  0  0
 19 42  1  0  0  0
 20 43  1  0  0  0
 22 44  1  0  0  0
 24 45  1  0  0  0
 24 46  1  0  0  0
 25 47  1  0  0  0
 25 48  1  0  0  0
 25 49  1  0  0  0
M  END
> <Reference>
González-Cuesta et al., 2022

> <Clean Energy>
30.7453

> <Chemical Formula>
C17H24N4O2S2

> <ForcefieldFFML>
<?xml version="1.0" encoding="UTF-8"?>
<!DOCTYPE ffml SYSTEM "Ffml.dtd">
<ffml version="1.0">
<forcefield name="(Z)-2-N?-Ethylthioureido-5-N,6-S-(N?-benzyliminomethylidene)-1,2-dideoxy-6- thionojirimycin-MMFF" derivedFrom="MMFF" base="MMFF">
<atomTypes>
<atomType
 name="N100"
 element="N"
 mass="14.007"
 annotation=""/>
<atomType
 name="C101"
 element="C"
 mass="12.011"
 annotation=""/>
<atomType
 name="S102"
 element="S"
 mass="32.066"
 annotation=""/>
<atomType
 name="O103"
 element="O"
 mass="16"
 annotation=""/>
<atomType
 name="H104"
 element="H"
 mass="1.008"
 annotation=""/>
</atomTypes>
<parameters>
</parameters>
</forcefield>
</ffml>

> <ForcefieldBase>
MMFF

> <Ki>
1000 ± 400nM

> <Forcefield>
MMFF

$$$$
(Z)-2-Propylthioureido-5-N,6-S-(N?-benzyliminomethylidene)-1,2-dideoxy-6- thionojirimycin
  DSViewer          3D                             0

 52 54  0  0  0  0  0  0  0  0999 V2000
    0.3843    1.3542   -0.1557 N   0  0
    0.2636    2.8062   -0.3829 C   0  0  2  0  0  0
    1.7222    0.9306   -0.1072 C   0  0
    2.7040    2.2679   -0.0481 S   0  0
    1.5637    3.5441    0.1429 C   0  0
    2.1634   -0.2642   -0.1108 N   0  0
    3.5993   -0.4118   -0.0562 C   0  0
    4.0641   -1.8413   -0.0311 C   0  0
    3.1964   -2.8507   -0.0406 C   0  0
    3.6911   -4.2359   -0.0163 C   0  0
    5.0016   -4.4797    0.0145 C   0  0
    5.9524   -3.3682    0.0250 C   0  0
    5.5061   -2.1142    0.0036 C   0  0
   -1.0153    3.4113    0.1700 C   0  0  2  0  0  0
   -2.2159    2.6060   -0.3438 C   0  0  1  0  0  0
   -2.0607    1.1423    0.1612 C   0  0  2  0  0  0
   -0.7439    0.4978   -0.4082 C   0  0
   -3.2295    0.3865   -0.2547 N   0  0
   -1.1073    4.7806   -0.2297 O   0  0
   -3.4146    3.1701    0.1926 O   0  0
   -3.4689   -0.9651    0.0833 C   0  0
   -4.6787   -1.5505   -0.2971 N   0  0
   -2.4285   -1.8168    0.8865 S   0  0
   -4.9370   -2.9260    0.0137 C   0  0
   -6.4040   -3.2629   -0.3071 C   0  0
   -6.6677   -4.7466    0.0098 C   0  0
    0.2368    2.9522   -1.4628 H   0  0
    1.4653    3.8500    1.1844 H   0  0
    1.8158    4.4105   -0.4686 H   0  0
    4.0276    0.0729   -0.9336 H   0  0
    3.9610    0.0825    0.8454 H   0  0
    2.1250   -2.6519   -0.0663 H   0  0
    2.9841   -5.0655   -0.0235 H   0  0
    5.3645   -5.5073    0.0320 H   0  0
    7.0239   -3.5662    0.0502 H   0  0
    6.2148   -1.2861    0.0120 H   0  0
   -0.9917    3.3593    1.2585 H   0  0
   -2.2448    2.6271   -1.4332 H   0  0
   -2.0108    1.1467    1.2500 H   0  0
   -0.5783   -0.4655    0.0741 H   0  0
   -0.8510    0.3530   -1.4832 H   0  0
   -3.9584    0.8866   -0.8577 H   0  0
   -0.2807    5.3106    0.1424 H   0  0
   -3.3824    3.1293    1.2414 H   0  0
   -5.4121   -0.9729   -0.8200 H   0  0
   -4.2808   -3.5613   -0.5812 H   0  0
   -4.7487   -3.0996    1.0732 H   0  0
   -7.0614   -2.6392    0.2986 H   0  0
   -6.5974   -3.0767   -1.3636 H   0  0
   -7.7062   -4.9880   -0.2166 H   0  0
   -6.4739   -4.9331    1.0661 H   0  0
   -6.0100   -5.3704   -0.5955 H   0  0
  1  2  1  0  0  0
  1  3  1  0  0  0
  3  4  1  0  0  0
  4  5  1  0  0  0
  5  2  1  0  0  0
  3  6  2  0  0  0
  6  7  1  0  0  0
  7  8  1  0  0  0
  8  9  2  0  0  0
  9 10  1  0  0  0
 10 11  2  0  0  0
 11 12  1  0  0  0
 12 13  2  0  0  0
 13  8  1  0  0  0
  2 14  1  0  0  0
 14 15  1  0  0  0
 15 16  1  0  0  0
 16 17  1  0  0  0
 17  1  1  0  0  0
 16 18  1  0  0  0
 14 19  1  0  0  0
 15 20  1  0  0  0
 18 21  1  0  0  0
 21 22  1  0  0  0
 21 23  2  0  0  0
 22 24  1  0  0  0
 24 25  1  0  0  0
 25 26  1  0  0  0
  2 27  1  0  0  0
  5 28  1  0  0  0
  5 29  1  0  0  0
  7 30  1  0  0  0
  7 31  1  0  0  0
  9 32  1  0  0  0
 10 33  1  0  0  0
 11 34  1  0  0  0
 12 35  1  0  0  0
 13 36  1  0  0  0
 14 37  1  0  0  0
 15 38  1  0  0  0
 16 39  1  0  0  0
 17 40  1  0  0  0
 17 41  1  0  0  0
 18 42  1  0  0  0
 19 43  1  0  0  0
 20 44  1  0  0  0
 22 45  1  0  0  0
 24 46  1  0  0  0
 24 47  1  0  0  0
 25 48  1  0  0  0
 25 49  1  0  0  0
 26 50  1  0  0  0
 26 51  1  0  0  0
 26 52  1  0  0  0
M  END
> <Reference>
González-Cuesta et al., 2022

> <Clean Energy>
30.5534

> <Chemical Formula>
C18H26N4O2S2

> <ForcefieldFFML>
<?xml version="1.0" encoding="UTF-8"?>
<!DOCTYPE ffml SYSTEM "Ffml.dtd">
<ffml version="1.0">
<forcefield name="(Z)-2-Propylthioureido-5-N,6-S-(N?-benzyliminomethylidene)-1,2-dideoxy-6- thionojirimycin-MMFF" derivedFrom="MMFF" base="MMFF">
<atomTypes>
<atomType
 name="N100"
 element="N"
 mass="14.007"
 annotation=""/>
<atomType
 name="C101"
 element="C"
 mass="12.011"
 annotation=""/>
<atomType
 name="S102"
 element="S"
 mass="32.066"
 annotation=""/>
<atomType
 name="O103"
 element="O"
 mass="16"
 annotation=""/>
<atomType
 name="H104"
 element="H"
 mass="1.008"
 annotation=""/>
</atomTypes>
<parameters>
</parameters>
</forcefield>
</ffml>

> <ForcefieldBase>
MMFF

> <Ki>
800 ± 300nM

> <Forcefield>
MMFF

$$$$
(Z)-2-Propionamido-5-N,6-S-(N?-1-naphthymethyliminomethylidene)-1,2-dideoxy-6- thionojirimycin
  DSViewer          3D                             0

 53 56  0  0  0  0  0  0  0  0999 V2000
   -1.3625    1.1289   -0.1126 N   0  0
   -1.5256    2.5792   -0.3553 C   0  0  2  0  0  0
    0.0080    0.7514   -0.0793 C   0  0
    0.9330    2.1315   -0.0346 S   0  0
   -0.2527    3.3613    0.1661 C   0  0
    0.5139   -0.4189   -0.0876 N   0  0
    1.9694   -0.4857   -0.0515 C   0  0
    2.5305   -1.8882   -0.0300 C   0  0
    1.7244   -2.9475   -0.0267 C   0  0
    2.2975   -4.3013   -0.0063 C   0  0
    3.6195   -4.4725    0.0073 C   0  0
    4.5086   -3.3112    0.0037 C   0  0
    3.9954   -2.0811   -0.0149 C   0  0
    5.9641   -3.5017    0.0177 C   0  0
    6.7751   -2.4450    0.0138 C   0  0
    6.2132   -1.0920   -0.0053 C   0  0
    4.8918   -0.9181   -0.0183 C   0  0
   -2.8234    3.1629    0.1754 C   0  0  2  0  0  0
   -3.9958    2.3317   -0.3431 C   0  0  1  0  0  0
   -3.8269    0.8833    0.1789 C   0  0  2  0  0  0
   -2.4833    0.2368   -0.3571 C   0  0
   -2.9416    4.5235   -0.2450 O   0  0
   -4.9897    0.1371   -0.2593 N   0  0
   -5.2134    2.8786    0.1690 O   0  0
   -5.2243   -1.1413    0.0300 C   0  0
   -6.4894   -1.7736   -0.4868 C   0  0
   -4.4328   -1.8035    0.7103 O   0  0
   -6.5538   -3.2512   -0.0691 C   0  0
   -1.5474    2.7108   -1.4371 H   0  0
   -0.3573    3.6596    1.2093 H   0  0
   -0.0362    4.2388   -0.4433 H   0  0
    2.3557    0.0222   -0.9352 H   0  0
    2.3120    0.0320    0.8445 H   0  0
    0.6430   -2.8116   -0.0391 H   0  0
    1.6381   -5.1693   -0.0022 H   0  0
    4.0381   -5.4788    0.0210 H   0  0
    6.3815   -4.5085    0.0312 H   0  0
    7.8558   -2.5867    0.0250 H   0  0
    6.8763   -0.2270   -0.0090 H   0  0
    4.4758    0.0893   -0.0315 H   0  0
   -2.8129    3.1252    1.2647 H   0  0
   -4.0093    2.3394   -1.4330 H   0  0
   -3.8041    0.8985    1.2685 H   0  0
   -2.3091   -0.7085    0.1568 H   0  0
   -2.5729    0.0575   -1.4285 H   0  0
   -2.1311    5.0773    0.1277 H   0  0
   -5.7120    0.6509   -0.8587 H   0  0
   -5.1959    2.8511    1.2185 H   0  0
   -7.3497   -1.2455   -0.0756 H   0  0
   -6.5070   -1.7061   -1.5746 H   0  0
   -7.4731   -3.6970   -0.4489 H   0  0
   -6.5383   -3.3228    1.0185 H   0  0
   -5.6958   -3.7833   -0.4801 H   0  0
  1  2  1  0  0  0
  1  3  1  0  0  0
  3  4  1  0  0  0
  4  5  1  0  0  0
  5  2  1  0  0  0
  3  6  2  0  0  0
  6  7  1  0  0  0
  7  8  1  0  0  0
  8  9  2  0  0  0
  9 10  1  0  0  0
 10 11  2  0  0  0
 11 12  1  0  0  0
 12 13  2  0  0  0
 13  8  1  0  0  0
 12 14  1  0  0  0
 14 15  2  0  0  0
 15 16  1  0  0  0
 16 17  2  0  0  0
 17 13  1  0  0  0
  2 18  1  0  0  0
 18 19  1  0  0  0
 19 20  1  0  0  0
 20 21  1  0  0  0
 21  1  1  0  0  0
 18 22  1  0  0  0
 20 23  1  0  0  0
 19 24  1  0  0  0
 23 25  1  0  0  0
 25 26  1  0  0  0
 25 27  2  0  0  0
 26 28  1  0  0  0
  2 29  1  0  0  0
  5 30  1  0  0  0
  5 31  1  0  0  0
  7 32  1  0  0  0
  7 33  1  0  0  0
  9 34  1  0  0  0
 10 35  1  0  0  0
 11 36  1  0  0  0
 14 37  1  0  0  0
 15 38  1  0  0  0
 16 39  1  0  0  0
 17 40  1  0  0  0
 18 41  1  0  0  0
 19 42  1  0  0  0
 20 43  1  0  0  0
 21 44  1  0  0  0
 21 45  1  0  0  0
 22 46  1  0  0  0
 23 47  1  0  0  0
 24 48  1  0  0  0
 26 49  1  0  0  0
 26 50  1  0  0  0
 28 51  1  0  0  0
 28 52  1  0  0  0
 28 53  1  0  0  0
M  END
> <Reference>
González-Cuesta et al., 2022

> <Clean Energy>
29.6291

> <Chemical Formula>
C21H25N3O3S

> <ForcefieldFFML>
<?xml version="1.0" encoding="UTF-8"?>
<!DOCTYPE ffml SYSTEM "Ffml.dtd">
<ffml version="1.0">
<forcefield name="(Z)-2-Propionamido-5-N,6-S-(N?-1-naphthymethyliminomethylidene)-1,2-dideoxy-6- thionojirimycin-MMFF" derivedFrom="MMFF" base="MMFF">
<atomTypes>
<atomType
 name="N100"
 element="N"
 mass="14.007"
 annotation=""/>
<atomType
 name="C101"
 element="C"
 mass="12.011"
 annotation=""/>
<atomType
 name="S102"
 element="S"
 mass="32.066"
 annotation=""/>
<atomType
 name="O103"
 element="O"
 mass="16"
 annotation=""/>
<atomType
 name="H104"
 element="H"
 mass="1.008"
 annotation=""/>
</atomTypes>
<parameters>
</parameters>
</forcefield>
</ffml>

> <ForcefieldBase>
MMFF

> <Ki>
0.8 ± 0.2nM

> <Forcefield>
MMFF

$$$$
(Z)-2-Propionamido-5-N,6-S-(N?-5-indolylmethyliminomethylidene)-1,2-dideoxy-6- thionojirimycin
  DSViewer          3D                             0

 51 54  0  0  0  0  0  0  0  0999 V2000
   -1.0073    1.5514   -0.1198 N   0  0
   -1.1562    3.0039   -0.3551 C   0  0  2  0  0  0
    0.3510    1.1607   -0.0824 C   0  0
    1.2931    2.5291   -0.0288 S   0  0
    0.1227    3.7715    0.1725 C   0  0
    0.8437   -0.0138   -0.0927 N   0  0
    2.2912   -0.0709   -0.0506 C   0  0
    2.8886   -1.4539   -0.0335 C   0  0
    2.1235   -2.5557   -0.0331 C   0  0
    2.7700   -3.8985   -0.0169 C   0  0
    4.0981   -3.9367   -0.0041 C   0  0
    4.8778   -2.8012   -0.0045 C   0  0
    4.3645   -1.5790   -0.0178 C   0  0
   -2.4480    3.5937    0.1789 C   0  0  2  0  0  0
   -3.6260    2.7723   -0.3462 C   0  0  1  0  0  0
   -3.4640    1.3186    0.1674 C   0  0  2  0  0  0
   -2.1279    0.6714   -0.3721 C   0  0
   -2.5553    4.9581   -0.2324 O   0  0
   -4.6202    0.5692   -0.2747 N   0  0
   -4.8405    3.3229    0.1681 O   0  0
   -4.8494   -0.7055    0.0351 C   0  0
   -6.0992   -1.3603   -0.4867 C   0  0
   -4.0607   -1.3482    0.7376 O   0  0
   -6.1447   -2.8337   -0.0510 C   0  0
    4.9305   -5.0412    0.0113 N   0  0
    6.2827   -4.5339    0.0201 C   0  0
    6.2675   -3.1881    0.0109 C   0  0
   -1.1763    3.1420   -1.4362 H   0  0
    0.0184    4.0679    1.2162 H   0  0
    0.3506    4.6483   -0.4337 H   0  0
    2.6728    0.4480   -0.9299 H   0  0
    2.6210    0.4477    0.8497 H   0  0
    1.0369   -2.4696   -0.0445 H   0  0
    2.1768   -4.8130   -0.0157 H   0  0
    5.0057   -0.6975   -0.0173 H   0  0
   -2.4382    3.5485    1.2679 H   0  0
   -3.6384    2.7869   -1.4361 H   0  0
   -3.4407    1.3268    1.2571 H   0  0
   -1.9593   -0.2796    0.1334 H   0  0
   -2.2179    0.5022   -1.4451 H   0  0
   -1.7404    5.5027    0.1442 H   0  0
   -5.3371    1.0715   -0.8901 H   0  0
   -4.8242    3.2886    1.2175 H   0  0
   -6.9711   -0.8401   -0.0901 H   0  0
   -6.1071   -1.3060   -1.5753 H   0  0
   -7.0533   -3.2984   -0.4338 H   0  0
   -6.1385   -2.8916    1.0375 H   0  0
   -5.2747   -3.3573   -0.4473 H   0  0
    4.6317   -6.0686    0.0158 H   0  0
    7.1821   -5.1495    0.0323 H   0  0
    7.1317   -2.5238    0.0144 H   0  0
  1  2  1  0  0  0
  1  3  1  0  0  0
  3  4  1  0  0  0
  4  5  1  0  0  0
  5  2  1  0  0  0
  3  6  2  0  0  0
  6  7  1  0  0  0
  7  8  1  0  0  0
  8  9  2  0  0  0
  9 10  1  0  0  0
 10 11  2  0  0  0
 11 12  1  0  0  0
 12 13  2  0  0  0
 13  8  1  0  0  0
  2 14  1  0  0  0
 14 15  1  0  0  0
 15 16  1  0  0  0
 16 17  1  0  0  0
 17  1  1  0  0  0
 14 18  1  0  0  0
 16 19  1  0  0  0
 15 20  1  0  0  0
 19 21  1  0  0  0
 21 22  1  0  0  0
 21 23  2  0  0  0
 22 24  1  0  0  0
 11 25  1  0  0  0
 25 26  1  0  0  0
 26 27  2  0  0  0
 27 12  1  0  0  0
  2 28  1  0  0  0
  5 29  1  0  0  0
  5 30  1  0  0  0
  7 31  1  0  0  0
  7 32  1  0  0  0
  9 33  1  0  0  0
 10 34  1  0  0  0
 13 35  1  0  0  0
 14 36  1  0  0  0
 15 37  1  0  0  0
 16 38  1  0  0  0
 17 39  1  0  0  0
 17 40  1  0  0  0
 18 41  1  0  0  0
 19 42  1  0  0  0
 20 43  1  0  0  0
 22 44  1  0  0  0
 22 45  1  0  0  0
 24 46  1  0  0  0
 24 47  1  0  0  0
 24 48  1  0  0  0
 25 49  1  0  0  0
 26 50  1  0  0  0
 27 51  1  0  0  0
M  END
> <Reference>
González-Cuesta et al., 2022

> <Clean Energy>
50.9485

> <Chemical Formula>
C19H24N4O3S

> <ForcefieldFFML>
<?xml version="1.0" encoding="UTF-8"?>
<!DOCTYPE ffml SYSTEM "Ffml.dtd">
<ffml version="1.0">
<forcefield name="(Z)-2-Propionamido-5-N,6-S-(N?-5-indolylmethyliminomethylidene)-1,2-dideoxy-6- thionojirimycin-MMFF" derivedFrom="MMFF" base="MMFF">
<atomTypes>
<atomType
 name="N100"
 element="N"
 mass="14.007"
 annotation=""/>
<atomType
 name="C101"
 element="C"
 mass="12.011"
 annotation=""/>
<atomType
 name="S102"
 element="S"
 mass="32.066"
 annotation=""/>
<atomType
 name="O103"
 element="O"
 mass="16"
 annotation=""/>
<atomType
 name="H104"
 element="H"
 mass="1.008"
 annotation=""/>
</atomTypes>
<parameters>
</parameters>
</forcefield>
</ffml>

> <ForcefieldBase>
MMFF

> <Ki>
2.4 ± 0.9nM

> <Forcefield>
MMFF

$$$$
DNJNAc-6S-NBn-Biotin
  DSViewer          3D                             0

183188  0  0  0  0  0  0  0  0999 V2000
   -0.0026   18.6627   -0.1080 N   0  0
   -0.1194   20.1264   -0.3351 C   0  0  2  0  0  0
    1.3694   18.2148   -0.0680 C   0  0
    2.3297   19.5841    0.0056 S   0  0
    1.1752   20.8552    0.2109 C   0  0
    1.8462   17.0254   -0.0882 N   0  0
    3.3236   16.9014   -0.0404 C   0  0
    4.0050   15.4928   -0.0309 C   0  0
    3.3285   14.3280   -0.0399 C   0  0
    4.0913   13.0050   -0.0286 C   0  0
    5.4287   12.9889   -0.0101 C   0  0
    6.1416   14.2852   -0.0006 C   0  0
    5.4754   15.4431   -0.0101 C   0  0
    6.2978   11.6632    0.0019 C   0  0
    5.5821   10.3515   -0.0035 N   0  0
    6.2963    9.1762    0.0006 C   0  0
    5.5689    7.7732   -0.0038 C   0  0
    7.5295    9.2217    0.0080 O   0  0
    6.5541    6.4834    0.0013 C   0  0
    5.7781    5.1830   -0.0021 O   0  0
    6.6284    3.9296    0.0011 C   0  0
    5.7290    2.5727   -0.0017 C   0  0
    6.5169    1.2770    0.0005 O   0  0
    5.6175    0.0537   -0.0012 C   0  0
    6.4039   -1.3708   -0.0004 C   0  0
    5.4717   -2.5679   -0.0012 O   0  0
    6.1862   -3.9039   -0.0020 C   0  0
    5.1731   -5.1746   -0.0009 C   0  0
    5.8683   -6.5162   -0.0028 O   0  0
    4.9051   -7.6816    0.0027 C   0  0
    5.6447   -9.1161   -0.0007 C   0  0
    4.7097  -10.3003    0.0093 O   0  0
    5.4832  -11.5754    0.0017 C   0  0
    4.6496  -12.9147    0.0174 C   0  0
    3.2385  -13.0519    0.0469 N   0  0
    2.9471  -14.2514    0.0517 N   0  0
    4.0806  -14.9886    0.0268 N   0  0
    5.1835  -14.1326    0.0039 C   0  0
    4.1785  -16.4716   -0.0127 C   0  0
    2.8195  -17.2716    0.1252 C   0  0
    3.1650  -18.8073    0.0120 C   0  0
    2.0348  -19.7419    0.1662 N   0  0
    2.2796  -21.0371   -0.1037 C   0  0
    3.4168  -21.3530   -0.4705 O   0  0
    1.2455  -22.1532    0.0374 C   0  0
   -0.1184  -21.7320    0.6230 C   0  0
   -1.0097  -20.6175   -0.4785 S   0  0
   -2.9345  -20.3587    0.2778 S   0  0
   -3.6693  -18.8969   -0.4811 C   0  0
   -5.0542  -18.6056    0.1247 C   0  0
   -6.0878  -19.6875   -0.2554 C   0  0
   -7.5020  -19.3655    0.3418 C   0  0
   -8.1123  -18.0165   -0.1880 C   0  0
   -7.3610  -16.8735    0.2721 O   0  0
   -7.9183  -15.6406   -0.2203 C   0  0
   -7.0243  -14.4570    0.2508 C   0  0
   -7.5541  -13.1928   -0.2092 O   0  0
   -6.6873  -12.1076    0.2115 C   0  0
   -7.2602  -10.7315   -0.2552 C   0  0
   -6.3818   -9.6442    0.1474 O   0  0
   -6.9195   -8.3613   -0.2869 C   0  0
   -5.9582   -7.1911    0.1153 C   0  0
   -6.4842   -5.8945   -0.3208 N   0  0
   -5.8008   -4.7603   -0.0777 C   0  0
   -4.7192   -4.8161    0.5179 O   0  0
   -6.3481   -3.4003   -0.5293 C   0  0
   -5.4480   -2.2245   -0.0023 C   0  0
   -5.9983   -0.8273   -0.4700 C   0  0
   -5.1885    0.3414    0.1981 C   0  0
   -5.7773    1.7439   -0.1916 C   0  0  2  0  0  0
   -5.2083    2.8928    0.6741 C   0  0  2  0  0  0
   -6.0617    4.1678    0.3877 C   0  0  2  0  0  0
   -7.4775    3.7324   -0.1397 C   0  0
   -7.4827    1.9659    0.2654 S   0  0
   -3.8625    3.3163    0.3450 N   0  0
   -3.9430    4.5684   -0.3138 C   0  0
   -5.2592    5.0129   -0.4317 N   0  0
   -2.9723    5.1616   -0.7999 O   0  0
   -1.4191   20.7576    0.1777 C   0  0  2  0  0  0
   -2.6105   19.9663   -0.3706 C   0  0  1  0  0  0
   -2.4856   18.5096    0.1478 C   0  0  2  0  0  0
   -1.1515   17.8196   -0.3709 C   0  0
   -1.4900   22.1268   -0.2331 O   0  0
   -3.6476   17.7740   -0.3039 N   0  0
   -3.8227   20.5464    0.1252 O   0  0
   -3.8910   16.5081    0.0316 C   0  0
   -5.1345   15.8409   -0.4824 C   0  0
   -3.1152   15.8796    0.7605 O   0  0
   -0.1167   20.2687   -1.4157 H   0  0
    1.0689   21.1422    1.2570 H   0  0
    1.4280   21.7332   -0.3835 H   0  0
    3.7090   17.4281   -0.9134 H   0  0
    3.6500   17.4116    0.8658 H   0  0
    2.2386   14.3297   -0.0551 H   0  0
    3.5404   12.0645   -0.0356 H   0  0
    7.2315   14.2958    0.0145 H   0  0
    6.0369   16.3773   -0.0022 H   0  0
    6.9361   11.6870   -0.8813 H   0  0
    6.9166   11.6903    0.8989 H   0  0
    4.5124   10.3267   -0.0105 H   0  0
    4.9374    7.7183    0.8829 H   0  0
    4.9471    7.7188   -0.8973 H   0  0
    7.1864    6.5191   -0.8859 H   0  0
    7.1779    6.5196    0.8944 H   0  0
    7.2605    3.9328   -0.8869 H   0  0
    7.2544    3.9332    0.8933 H   0  0
    5.0975    2.5849    0.8867 H   0  0
    5.1026    2.5850   -0.8936 H   0  0
    4.9883    0.0942    0.8880 H   0  0
    4.9911    0.0946   -0.8923 H   0  0
    7.0319   -1.4202   -0.8899 H   0  0
    7.0301   -1.4201    0.8904 H   0  0
    6.8117   -3.9611   -0.8928 H   0  0
    6.8137   -3.9611    0.8874 H   0  0
    4.5486   -5.1138    0.8904 H   0  0
    4.5455   -5.1129   -0.8899 H   0  0
    4.2842   -7.6139    0.8960 H   0  0
    4.2750   -7.6145   -0.8842 H   0  0
    6.2635   -9.1783   -0.8958 H   0  0
    6.2782   -9.1748    0.8844 H   0  0
    6.0994  -11.5815   -0.8973 H   0  0
    6.1250  -11.5766    0.8828 H   0  0
    6.2397  -14.4010   -0.0196 H   0  0
    4.6308  -16.7486   -0.9650 H   0  0
    4.8302  -16.7825    0.8038 H   0  0
    2.3605  -17.0630    1.0916 H   0  0
    2.1348  -16.9837   -0.6726 H   0  0
    3.6055  -18.9775   -0.9704 H   0  0
    3.8975  -19.0412    0.7846 H   0  0
    1.0675  -19.4065    0.4773 H   0  0
    1.0692  -22.5733   -0.9528 H   0  0
    1.6668  -22.9195    0.6881 H   0  0
   -0.7227  -22.6245    0.7850 H   0  0
    0.0479  -21.2275    1.5749 H   0  0
   -3.0174  -18.0400   -0.3111 H   0  0
   -3.7762  -19.0659   -1.5526 H   0  0
   -4.9637  -18.5709    1.2104 H   0  0
   -5.4034  -17.6405   -0.2423 H   0  0
   -6.1651  -19.7376   -1.3415 H   0  0
   -5.7513  -20.6499    0.1302 H   0  0
   -8.1804  -20.1776    0.0802 H   0  0
   -7.4124  -19.3014    1.4263 H   0  0
   -8.1039  -18.0292   -1.2778 H   0  0
   -9.1393  -17.9301    0.1670 H   0  0
   -7.9503  -15.6634   -1.3096 H   0  0
   -8.9279  -15.5141    0.1708 H   0  0
   -6.9849  -14.4516    1.3400 H   0  0
   -6.0189  -14.5887   -0.1491 H   0  0
   -6.6096  -12.1127    1.2987 H   0  0
   -5.6985  -12.2499   -0.2246 H   0  0
   -7.3528  -10.7326   -1.3413 H   0  0
   -8.2423  -10.5825    0.1936 H   0  0
   -7.0364   -8.3713   -1.3706 H   0  0
   -7.8905   -8.2034    0.1824 H   0  0
   -5.8451   -7.1816    1.1994 H   0  0
   -4.9863   -7.3544   -0.3505 H   0  0
   -7.4203   -5.8489   -0.8371 H   0  0
   -6.3713   -3.3699   -1.6186 H   0  0
   -7.3588   -3.2765   -0.1403 H   0  0
   -5.4305   -2.2521    1.0872 H   0  0
   -4.4358   -2.3534   -0.3858 H   0  0
   -5.9071   -0.7517   -1.5536 H   0  0
   -7.0474   -0.7431   -0.1864 H   0  0
   -5.2310    0.2278    1.2813 H   0  0
   -4.1513    0.2881   -0.1329 H   0  0
   -5.6295    1.9465   -1.2524 H   0  0
   -5.2701    2.6310    1.7304 H   0  0
   -6.2110    4.6807    1.3378 H   0  0
   -8.2763    4.2625    0.3789 H   0  0
   -7.5702    3.8952   -1.2135 H   0  0
   -2.9639    2.7774    0.5618 H   0  0
   -5.6021    5.8341   -1.0257 H   0  0
   -1.4319   20.7115    1.2666 H   0  0
   -2.6036   19.9807   -1.4605 H   0  0
   -2.4765   18.5218    1.2377 H   0  0
   -1.0199   16.8661    0.1405 H   0  0
   -1.2315   17.6487   -1.4445 H   0  0
   -0.6709   22.6534    0.1596 H   0  0
   -4.3478   18.2734   -0.9406 H   0  0
   -3.8256   20.5089    1.1746 H   0  0
   -5.1760   14.8158   -0.1144 H   0  0
   -5.1201   15.8348   -1.5724 H   0  0
   -6.0110   16.3872   -0.1341 H   0  0
  1  2  1  0  0  0
  1  3  1  0  0  0
  3  4  1  0  0  0
  4  5  1  0  0  0
  5  2  1  0  0  0
  3  6  2  0  0  0
  6  7  1  0  0  0
  7  8  1  0  0  0
  8  9  2  0  0  0
  9 10  1  0  0  0
 10 11  2  0  0  0
 11 12  1  0  0  0
 12 13  2  0  0  0
 13  8  1  0  0  0
 11 14  1  0  0  0
 14 15  1  0  0  0
 15 16  1  0  0  0
 16 17  1  0  0  0
 16 18  2  0  0  0
 17 19  1  0  0  0
 19 20  1  0  0  0
 20 21  1  0  0  0
 21 22  1  0  0  0
 22 23  1  0  0  0
 23 24  1  0  0  0
 24 25  1  0  0  0
 25 26  1  0  0  0
 26 27  1  0  0  0
 27 28  1  0  0  0
 28 29  1  0  0  0
 29 30  1  0  0  0
 30 31  1  0  0  0
 31 32  1  0  0  0
 32 33  1  0  0  0
 33 34  1  0  0  0
 34 35  1  0  0  0
 35 36  2  0  0  0
 36 37  1  0  0  0
 37 38  1  0  0  0
 38 34  2  0  0  0
 37 39  1  0  0  0
 39 40  1  0  0  0
 40 41  1  0  0  0
 41 42  1  0  0  0
 42 43  1  0  0  0
 43 44  2  0  0  0
 43 45  1  0  0  0
 45 46  1  0  0  0
 46 47  1  0  0  0
 47 48  1  0  0  0
 48 49  1  0  0  0
 49 50  1  0  0  0
 50 51  1  0  0  0
 51 52  1  0  0  0
 52 53  1  0  0  0
 53 54  1  0  0  0
 54 55  1  0  0  0
 55 56  1  0  0  0
 56 57  1  0  0  0
 57 58  1  0  0  0
 58 59  1  0  0  0
 59 60  1  0  0  0
 60 61  1  0  0  0
 61 62  1  0  0  0
 62 63  1  0  0  0
 63 64  1  0  0  0
 64 65  2  0  0  0
 64 66  1  0  0  0
 66 67  1  0  0  0
 67 68  1  0  0  0
 68 69  1  0  0  0
 69 70  1  0  0  0
 70 71  1  0  0  0
 71 72  1  0  0  0
 72 73  1  0  0  0
 73 74  1  0  0  0
 74 70  1  0  0  0
 71 75  1  0  0  0
 75 76  1  0  0  0
 76 77  1  0  0  0
 77 72  1  0  0  0
 76 78  2  0  0  0
  2 79  1  0  0  0
 79 80  1  0  0  0
 80 81  1  0  0  0
 81 82  1  0  0  0
 82  1  1  0  0  0
 79 83  1  0  0  0
 81 84  1  0  0  0
 80 85  1  0  0  0
 84 86  1  0  0  0
 86 87  1  0  0  0
 86 88  2  0  0  0
  2 89  1  0  0  0
  5 90  1  0  0  0
  5 91  1  0  0  0
  7 92  1  0  0  0
  7 93  1  0  0  0
  9 94  1  0  0  0
 10 95  1  0  0  0
 12 96  1  0  0  0
 13 97  1  0  0  0
 14 98  1  0  0  0
 14 99  1  0  0  0
 15100  1  0  0  0
 17101  1  0  0  0
 17102  1  0  0  0
 19103  1  0  0  0
 19104  1  0  0  0
 21105  1  0  0  0
 21106  1  0  0  0
 22107  1  0  0  0
 22108  1  0  0  0
 24109  1  0  0  0
 24110  1  0  0  0
 25111  1  0  0  0
 25112  1  0  0  0
 27113  1  0  0  0
 27114  1  0  0  0
 28115  1  0  0  0
 28116  1  0  0  0
 30117  1  0  0  0
 30118  1  0  0  0
 31119  1  0  0  0
 31120  1  0  0  0
 33121  1  0  0  0
 33122  1  0  0  0
 38123  1  0  0  0
 39124  1  0  0  0
 39125  1  0  0  0
 40126  1  0  0  0
 40127  1  0  0  0
 41128  1  0  0  0
 41129  1  0  0  0
 42130  1  0  0  0
 45131  1  0  0  0
 45132  1  0  0  0
 46133  1  0  0  0
 46134  1  0  0  0
 49135  1  0  0  0
 49136  1  0  0  0
 50137  1  0  0  0
 50138  1  0  0  0
 51139  1  0  0  0
 51140  1  0  0  0
 52141  1  0  0  0
 52142  1  0  0  0
 53143  1  0  0  0
 53144  1  0  0  0
 55145  1  0  0  0
 55146  1  0  0  0
 56147  1  0  0  0
 56148  1  0  0  0
 58149  1  0  0  0
 58150  1  0  0  0
 59151  1  0  0  0
 59152  1  0  0  0
 61153  1  0  0  0
 61154  1  0  0  0
 62155  1  0  0  0
 62156  1  0  0  0
 63157  1  0  0  0
 66158  1  0  0  0
 66159  1  0  0  0
 67160  1  0  0  0
 67161  1  0  0  0
 68162  1  0  0  0
 68163  1  0  0  0
 69164  1  0  0  0
 69165  1  0  0  0
 70166  1  0  0  0
 71167  1  0  0  0
 72168  1  0  0  0
 73169  1  0  0  0
 73170  1  0  0  0
 75171  1  0  0  0
 77172  1  0  0  0
 79173  1  0  0  0
 80174  1  0  0  0
 81175  1  0  0  0
 82176  1  0  0  0
 82177  1  0  0  0
 83178  1  0  0  0
 84179  1  0  0  0
 85180  1  0  0  0
 87181  1  0  0  0
 87182  1  0  0  0
 87183  1  0  0  0
M  END
> <IC50>
7.6 nM

> <Chemical Formula>
C58H95N11O15S4

> <Forcefield>
MMFF

> <Reference>
González-Cuesta et al., 2022

> <ForcefieldFFML>
<?xml version="1.0" encoding="UTF-8"?>
<!DOCTYPE ffml SYSTEM "Ffml.dtd">
<ffml version="1.0">
<forcefield name="DNJNAc-6S-NBn-Biotin-MMFF" derivedFrom="MMFF" base="MMFF">
<atomTypes>
<atomType
 name="N100"
 element="N"
 mass="14.007"
 annotation=""/>
<atomType
 name="C101"
 element="C"
 mass="12.011"
 annotation=""/>
<atomType
 name="S102"
 element="S"
 mass="32.066"
 annotation=""/>
<atomType
 name="O103"
 element="O"
 mass="16"
 annotation=""/>
<atomType
 name="H104"
 element="H"
 mass="1.008"
 annotation=""/>
</atomTypes>
<parameters>
</parameters>
</forcefield>
</ffml>

> <ForcefieldBase>
MMFF

$$$$
C18H25N3O7
  DSViewer          3D                             0

 53 54  0  0  0  0  0  0  0  0999 V2000
   -4.5134   -0.9544    0.1863 C   0  0  1  0  0  0
   -4.5775   -2.4019   -0.2743 C   0  0  1  0  0  0
   -3.3481   -3.1402    0.2934 C   0  0  2  0  0  0
   -2.1352   -2.5317   -0.0565 O   0  0
   -2.0162   -1.1775   -0.2325 C   0  0
   -3.2759   -0.3153   -0.4799 C   0  0  2  0  0  0
   -0.8500   -0.6828   -0.2599 N   0  0
    0.2271   -1.4328   -0.0827 O   0  0
    1.3553   -0.6059   -0.1164 C   0  0
    2.6467   -1.1731    0.0421 N   0  0
    3.8622   -0.4257    0.0348 C   0  0
    5.0180   -1.0835    0.1209 C   0  0
    6.2903   -0.3542    0.1144 C   0  0
    6.2988    0.9743    0.0236 C   0  0
    5.0361    1.7072   -0.0694 C   0  0
    3.8796    1.0459   -0.0647 C   0  0
    1.2009    0.6084   -0.2832 O   0  0
   -3.2309    1.1501   -0.1524 N   0  0
   -5.7524   -3.0431    0.2269 O   0  0
   -5.6744   -0.2420   -0.2440 O   0  0
   -3.3578   -4.6030   -0.1841 C   0  0
   -2.1795    1.9302    0.1691 C   0  0
   -1.0387    1.4918    0.2715 O   0  0
   -2.4013    3.4026    0.4075 C   0  0
   -2.2416   -5.2961    0.3748 O   0  0
   -1.0399    4.1554    0.5061 C   0  0
   -0.2670    4.0718   -0.8372 C   0  0
   -1.2962    5.6371    0.8263 C   0  0
   -4.4234   -0.9078    1.2716 H   0  0
   -4.5666   -2.4457   -1.3634 H   0  0
   -3.4256   -3.1390    1.3806 H   0  0
   -3.4609   -0.3694   -1.5527 H   0  0
    2.7133   -2.2326    0.1761 H   0  0
    5.0177   -2.1709    0.1966 H   0  0
    7.2309   -0.9006    0.1840 H   0  0
    7.2452    1.5149    0.0185 H   0  0
    5.0415    2.7947   -0.1426 H   0  0
    2.9409    1.5955   -0.1347 H   0  0
   -4.1764    1.6504   -0.1781 H   0  0
   -5.7420   -3.0227    1.2767 H   0  0
   -5.7308   -0.2643   -1.2923 H   0  0
   -4.2815   -5.0836    0.1380 H   0  0
   -3.2938   -4.6299   -1.2719 H   0  0
   -2.9796    3.8157   -0.4189 H   0  0
   -2.9518    3.5353    1.3389 H   0  0
   -1.3511   -4.8339    0.0650 H   0  0
   -0.4373    3.7123    1.2990 H   0  0
    0.6800    4.6037   -0.7458 H   0  0
   -0.8631    4.5257   -1.6288 H   0  0
   -0.0742    3.0272   -1.0816 H   0  0
   -0.3447    6.1643    0.8954 H   0  0
   -1.8255    5.7179    1.7758 H   0  0
   -1.9003    6.0812    0.0351 H   0  0
  1  2  1  0  0  0
  2  3  1  0  0  0
  3  4  1  0  0  0
  4  5  1  0  0  0
  5  6  1  0  0  0
  6  1  1  0  0  0
  5  7  2  0  0  0
  7  8  1  0  0  0
  8  9  1  0  0  0
  9 10  1  0  0  0
 10 11  1  0  0  0
 11 12  2  0  0  0
 12 13  1  0  0  0
 13 14  2  0  0  0
 14 15  1  0  0  0
 15 16  2  0  0  0
 16 11  1  0  0  0
  9 17  2  0  0  0
  6 18  1  0  0  0
  2 19  1  0  0  0
  1 20  1  0  0  0
  3 21  1  0  0  0
 18 22  1  0  0  0
 22 23  2  0  0  0
 22 24  1  0  0  0
 21 25  1  0  0  0
 24 26  1  0  0  0
 26 27  1  0  0  0
 26 28  1  0  0  0
  1 29  1  0  0  0
  2 30  1  0  0  0
  3 31  1  0  0  0
  6 32  1  0  0  0
 10 33  1  0  0  0
 12 34  1  0  0  0
 13 35  1  0  0  0
 14 36  1  0  0  0
 15 37  1  0  0  0
 16 38  1  0  0  0
 18 39  1  0  0  0
 19 40  1  0  0  0
 20 41  1  0  0  0
 21 42  1  0  0  0
 21 43  1  0  0  0
 24 44  1  0  0  0
 24 45  1  0  0  0
 25 46  1  0  0  0
 26 47  1  0  0  0
 27 48  1  0  0  0
 27 49  1  0  0  0
 27 50  1  0  0  0
 28 51  1  0  0  0
 28 52  1  0  0  0
 28 53  1  0  0  0
M  END
> <Ki>
190nM

> <Chemical Formula>
C18H25N3O7

> <Forcefield>
MMFF

> <ForcefieldBase>
MMFF

> <ForcefieldFFML>
<?xml version="1.0" encoding="UTF-8"?>
<!DOCTYPE ffml SYSTEM "Ffml.dtd">
<ffml version="1.0">
<forcefield name="C18H25N3O7-MMFF" derivedFrom="MMFF" base="MMFF">
<atomTypes>
<atomType
 name="C100"
 element="C"
 mass="12.011"
 annotation=""/>
<atomType
 name="O101"
 element="O"
 mass="16"
 annotation=""/>
<atomType
 name="N102"
 element="N"
 mass="14.007"
 annotation=""/>
<atomType
 name="H103"
 element="H"
 mass="1.008"
 annotation=""/>
</atomTypes>
<parameters>
</parameters>
</forcefield>
</ffml>

> <Reference>
Elbatrawy et al., 2020

$$$$
C8H13NO6
  DSViewer          3D                             0

 28 28  0  0  0  0  0  0  0  0999 V2000
   -1.2045   -0.1250    0.3197 C   0  0  1  0  0  0
   -1.0920   -1.4979   -0.3161 C   0  0  1  0  0  0
    0.2234   -2.1241    0.2011 C   0  0  2  0  0  0
    1.3484   -1.3250   -0.0682 O   0  0
    1.2760    0.0437   -0.0587 C   0  0
   -0.0391    0.7361   -0.2389 C   0  0  2  0  0  0
    0.0274    2.0695    0.3294 N   0  0
   -2.1755   -2.3322    0.0958 O   0  0
   -2.4526    0.4800   -0.0158 O   0  0
    0.4185   -3.5263   -0.3950 C   0  0
    2.3196    0.7091   -0.0718 O   0  0
   -0.8675    3.0238    0.0738 C   0  0
   -0.7105    4.3732    0.7095 C   0  0
   -1.8264    2.8111   -0.6799 O   0  0
    1.6053   -4.1083    0.1486 O   0  0
   -1.1146   -0.2107    1.4026 H   0  0
   -1.0703   -1.4126   -1.4026 H   0  0
    0.1401   -2.2298    1.2828 H   0  0
   -0.2029    0.8479   -1.3108 H   0  0
    0.8381    2.2990    0.9889 H   0  0
   -2.1584   -2.4387    1.1403 H   0  0
   -2.5244    0.5802   -1.0586 H   0  0
   -0.4399   -4.1504   -0.1466 H   0  0
    0.5128   -3.4516   -1.4783 H   0  0
   -1.5259    5.0225    0.3908 H   0  0
    0.2409    4.8099    0.4058 H   0  0
   -0.7323    4.2691    1.7943 H   0  0
    2.4319   -3.5065   -0.0902 H   0  0
  1  2  1  0  0  0
  2  3  1  0  0  0
  3  4  1  0  0  0
  4  5  1  0  0  0
  5  6  1  0  0  0
  6  1  1  0  0  0
  6  7  1  0  0  0
  2  8  1  0  0  0
  1  9  1  0  0  0
  3 10  1  0  0  0
  5 11  2  0  0  0
  7 12  1  0  0  0
 12 13  1  0  0  0
 12 14  2  0  0  0
 10 15  1  0  0  0
  1 16  1  0  0  0
  2 17  1  0  0  0
  3 18  1  0  0  0
  6 19  1  0  0  0
  7 20  1  0  0  0
  8 21  1  0  0  0
  9 22  1  0  0  0
 10 23  1  0  0  0
 10 24  1  0  0  0
 13 25  1  0  0  0
 13 26  1  0  0  0
 13 27  1  0  0  0
 15 28  1  0  0  0
M  END
> <Ki>
24µM

> <Chemical Formula>
C8H13NO6

> <Forcefield>
MMFF

> <ForcefieldBase>
MMFF

> <ForcefieldFFML>
<?xml version="1.0" encoding="UTF-8"?>
<!DOCTYPE ffml SYSTEM "Ffml.dtd">
<ffml version="1.0">
<forcefield name="C8H13NO6-MMFF" derivedFrom="MMFF" base="MMFF">
<atomTypes>
<atomType
 name="C100"
 element="C"
 mass="12.011"
 annotation=""/>
<atomType
 name="O101"
 element="O"
 mass="16"
 annotation=""/>
<atomType
 name="N102"
 element="N"
 mass="14.007"
 annotation=""/>
<atomType
 name="H103"
 element="H"
 mass="1.008"
 annotation=""/>
</atomTypes>
<parameters>
</parameters>
</forcefield>
</ffml>

> <Reference>
Elbatrawy et al., 2020

$$$$
C9H14N4O3S
  DSViewer          3D                             0

 32 33  0  0  0  0  0  0  0  0999 V2000
   -2.1215    1.5456    0.2620 C   0  0  2  0  0  0
   -1.4439    0.2824    1.2085 C   0  0  2  0  0  0
    0.1988    0.2583    1.1901 C   0  0  2  0  0  0
    0.7044    1.5391    0.9226 C   0  0
   -1.3496    1.5827   -0.9303 C   0  0  1  0  0  0
    0.2097    2.0313   -0.5469 C   0  0  1  0  0  0
    0.4625    3.5748   -0.3635 C   0  0
    1.8830    3.9103   -0.2259 O   0  0
   -1.7007   -1.2171    0.8144 N   0  0
   -0.7194   -1.8449    0.2301 C   0  0
    0.5936   -0.8615    0.0329 S   0  0
   -1.5003    0.2670   -1.3920 O   0  0
   -2.0465    2.8533    0.8466 O   0  0
   -0.7296   -3.3160   -0.1680 C   0  0
    0.5870   -3.9668   -0.0478 N   0  0
    1.7244   -3.3176   -0.0284 N   0  3
    2.6774   -2.7732   -0.0122 N   0  5
   -3.1858    1.3380    0.0957 H   0  0
   -1.8987    0.5229    2.1781 H   0  0
    0.5403   -0.2052    2.1310 H   0  0
    0.2618    2.1617    1.6947 H   0  0
    1.8052    1.6220    0.9657 H   0  0
   -1.7081    2.2556   -1.7180 H   0  0
    0.8004    1.6780   -1.4074 H   0  0
    0.0896    4.1006   -1.2397 H   0  0
   -0.0892    3.9178    0.5298 H   0  0
    2.3140    3.4979    0.5500 H   0  0
   -1.0296    0.1634   -2.2377 H   0  0
   -2.6180    2.8920    1.6522 H   0  0
   -1.0186   -3.3790   -1.2236 H   0  0
   -1.4844   -3.8642    0.4111 H   0  0
    0.6155   -5.0337    0.0282 H   0  0
 16 17  3  0  0  0
 15 16  1  0  0  0
 14 15  1  0  0  0
  1  2  1  0  0  0
  2  3  1  0  0  0
  4  3  1  0  0  0
  1  5  1  0  0  0
  5  6  1  0  0  0
  6  4  1  0  0  0
  6  7  1  0  0  0
  7  8  1  0  0  0
  2  9  1  0  0  0
  9 10  2  0  0  0
 10 11  1  0  0  0
 11  3  1  0  0  0
  5 12  1  0  0  0
  1 13  1  0  0  0
 10 14  1  0  0  0
  1 18  1  0  0  0
  2 19  1  0  0  0
  3 20  1  0  0  0
  4 21  1  0  0  0
  4 22  1  0  0  0
  5 23  1  0  0  0
  6 24  1  0  0  0
  7 25  1  0  0  0
  7 26  1  0  0  0
  8 27  1  0  0  0
 12 28  1  0  0  0
 13 29  1  0  0  0
 14 30  1  0  0  0
 14 31  1  0  0  0
 15 32  1  0  0  0
M  CHG  2  16   1  17  -1
M  END
> <Clean Energy>
131.799

> <Chemical Formula>
C9H14N4O3S

> <Forcefield>
MMFF

> <ForcefieldBase>
MMFF

> <ForcefieldFFML>
<?xml version="1.0" encoding="UTF-8"?>
<!DOCTYPE ffml SYSTEM "Ffml.dtd">
<ffml version="1.0">
<forcefield name="C9H14N4O3S-MMFF" derivedFrom="MMFF" base="MMFF">
<atomTypes>
<atomType
 name="C100"
 element="C"
 mass="12.011"
 annotation=""/>
<atomType
 name="O101"
 element="O"
 mass="16"
 annotation=""/>
<atomType
 name="N102"
 element="N"
 mass="14.007"
 annotation=""/>
<atomType
 name="S103"
 element="S"
 mass="32.066"
 annotation=""/>
<atomType
 name="H104"
 element="H"
 mass="1.008"
 annotation=""/>
</atomTypes>
<parameters>
</parameters>
</forcefield>
</ffml>

> <Reference>
Elbatrawy et al., 2020

$$$$
C8H12N4O3S
  DSViewer          3D                             0

 28 29  0  0  0  0  0  0  0  0999 V2000
   -0.7479    0.6321   -0.2485 C   0  0  2  0  0  0
   -0.8121   -0.9050    0.1922 C   0  0  2  0  0  0
    0.4588   -1.5804   -0.3236 O   0  0
    1.7082   -0.9037    0.2203 C   0  0  2  0  0  0
    1.8678    0.5222   -0.3548 C   0  0  1  0  0  0
    0.6333    1.3891    0.1690 C   0  0  1  0  0  0
    3.3032   -1.5034   -0.1361 S   0  0
    4.1830   -0.0493   -0.0620 C   0  0
    3.3676    0.9620   -0.1131 N   0  0
    5.7181    0.0289    0.0950 C   0  0
   -2.2068   -1.6585   -0.4186 C   0  0
   -1.8832    1.3377    0.3179 O   0  0
    0.6315    2.7192   -0.4195 O   0  0
   -3.5722   -1.0967    0.0053 N   0  0
   -4.6165   -1.7049   -0.0417 N   0  3
   -5.6477   -2.3059   -0.0879 N   0  5
   -0.8366    0.6727   -1.3341 H   0  0
   -0.8266   -0.9613    1.2807 H   0  0
    1.6084   -0.8247    1.3028 H   0  0
    1.7443    0.4333   -1.4341 H   0  0
    0.6854    1.4738    1.2544 H   0  0
    6.0290    1.0734    0.1152 H   0  0
    6.1959   -0.4756   -0.7448 H   0  0
    6.0138   -0.4557    1.0255 H   0  0
   -2.1746   -2.7024   -0.1067 H   0  0
   -2.1563   -1.6019   -1.5060 H   0  0
   -2.7742    0.9072   -0.0333 H   0  0
    1.5200    3.2168   -0.1637 H   0  0
 15 16  2  0  0  0
 14 15  2  0  0  0
 11 14  1  0  0  0
  1  2  1  0  0  0
  2  3  1  0  0  0
  3  4  1  0  0  0
  4  5  1  0  0  0
  5  6  1  0  0  0
  6  1  1  0  0  0
  4  7  1  0  0  0
  7  8  1  0  0  0
  8  9  2  0  0  0
  9  5  1  0  0  0
  8 10  1  0  0  0
  2 11  1  0  0  0
  1 12  1  0  0  0
  6 13  1  0  0  0
  1 17  1  0  0  0
  2 18  1  0  0  0
  4 19  1  0  0  0
  5 20  1  0  0  0
  6 21  1  0  0  0
 10 22  1  0  0  0
 10 23  1  0  0  0
 10 24  1  0  0  0
 11 25  1  0  0  0
 11 26  1  0  0  0
 12 27  1  0  0  0
 13 28  1  0  0  0
M  CHG  2  15   1  16  -1
M  END
> <Ki>
0.7µM

> <Chemical Formula>
C8H12N4O3S

> <Forcefield>
MMFF

> <ForcefieldBase>
MMFF

> <ForcefieldFFML>
<?xml version="1.0" encoding="UTF-8"?>
<!DOCTYPE ffml SYSTEM "Ffml.dtd">
<ffml version="1.0">
<forcefield name="C8H12N4O3S-MMFF" derivedFrom="MMFF" base="MMFF">
<atomTypes>
<atomType
 name="C100"
 element="C"
 mass="12.011"
 annotation=""/>
<atomType
 name="O101"
 element="O"
 mass="16"
 annotation=""/>
<atomType
 name="S102"
 element="S"
 mass="32.066"
 annotation=""/>
<atomType
 name="N103"
 element="N"
 mass="14.007"
 annotation=""/>
<atomType
 name="H104"
 element="H"
 mass="1.008"
 annotation=""/>
</atomTypes>
<parameters>
</parameters>
</forcefield>
</ffml>

> <Reference>
Elbatrawy et al., 2020

$$$$
C8H13NO4Se
  SciTegic07212313583D

 27 28  0  0  0  0            999 V2000
   -2.1422    0.7527   -0.3349 C   0  0  2  0  0  0
   -2.1593   -0.7208    0.1752 C   0  0  2  0  0  0
   -1.0007   -1.4443   -0.3279 O   0  0
    0.1916   -0.7983    0.1299 C   0  0  2  0  0  0
    0.3109    0.6349   -0.3812 C   0  0  1  0  0  0
   -0.8549    1.4420    0.1610 C   0  0  1  0  0  0
    1.8336   -1.4954   -0.4681 Se  0  0
    2.5580    0.1817   -0.0284 C   0  0
    1.6706    1.1116   -0.0049 N   0  0
    4.0070    0.4055    0.2897 C   0  0
   -3.4406   -1.4127   -0.3167 C   0  0
   -3.2836    1.4525    0.1631 O   0  0
   -0.7957    2.7886   -0.3116 O   0  0
   -3.4620   -2.7606    0.1568 O   0  0
   -2.1600    0.7592   -1.4247 H   0  0
   -2.1424   -0.7256    1.2651 H   0  0
    0.1897   -0.7853    1.2198 H   0  0
    0.2412    0.6187   -1.4688 H   0  0
   -0.8311    1.4343    1.2507 H   0  0
    4.1724    1.4599    0.5105 H   0  0
    4.6165    0.1140   -0.5657 H   0  0
    4.2863   -0.1947    1.1556 H   0  0
   -4.3114   -0.8793    0.0644 H   0  0
   -3.4602   -1.4096   -1.4065 H   0  0
   -4.1588    0.9799   -0.1734 H   0  0
    0.1018    3.2321    0.0052 H   0  0
   -2.6229   -3.2743   -0.2099 H   0  0
  1  2  1  0
  2  3  1  0
  3  4  1  0
  4  5  1  0
  5  6  1  0
  6  1  1  0
  4  7  1  0
  7  8  1  0
  8  9  2  0
  9  5  1  0
  8 10  1  0
  2 11  1  0
  1 12  1  0
  6 13  1  0
 11 14  1  0
  1 15  1  0
  2 16  1  0
  4 17  1  0
  5 18  1  0
  6 19  1  0
 10 20  1  0
 10 21  1  0
 10 22  1  0
 11 23  1  0
 11 24  1  0
 12 25  1  0
 13 26  1  0
 14 27  1  0
M  END
> <Name>
C8H13NO4Se

> <Ki>
19.3µM

> <Chemical Formula>
C8H13NO4Se

> <Forcefield>
MMFF

> <ForcefieldBase>
MMFF

> <ForcefieldFFML>
<?xml version="1.0" encoding="UTF-8"?>
<!DOCTYPE ffml SYSTEM "Ffml.dtd">
<ffml version="1.0">
<forcefield name="C8H13NO4Se-MMFF" derivedFrom="MMFF" base="MMFF">
<atomTypes>
<atomType
 name="C100"
 element="C"
 mass="12.011"
 annotation=""/>
<atomType
 name="O101"
 element="O"
 mass="16"
 annotation=""/>
<atomType
 name="Se102"
 element="Se"
 mass="78.96"
 annotation=""/>
<atomType
 name="N103"
 element="N"
 mass="14.007"
 annotation=""/>
<atomType
 name="H104"
 element="H"
 mass="1.008"
 annotation=""/>
</atomTypes>
<parameters>
</parameters>
</forcefield>
</ffml>

> <Reference>
Elbatrawy et al., 2020

$$$$
C10H18N2O4S
  SciTegic07212313583D

 35 36  0  0  0  0            999 V2000
   -3.4120    0.9006   -0.3556 C   0  0  2  0  0  0
   -3.4898   -0.5721    0.1563 C   0  0  2  0  0  0
   -2.3254   -1.3296   -0.2876 O   0  0
   -1.1509   -0.7143    0.2419 C   0  0  2  0  0  0
   -0.9687    0.7293   -0.2881 C   0  0  1  0  0  0
   -2.1330    1.5715    0.1938 C   0  0  1  0  0  0
    0.3770   -1.3675   -0.1486 S   0  0
    1.2770    0.0439   -0.0159 C   0  0
    0.4011    1.1562    0.0816 N   0  0
   -4.7621   -1.2330   -0.3972 C   0  0
   -2.0264    2.9095   -0.2948 O   0  0
   -4.5603    1.6290    0.0828 O   0  0
   -4.8402   -2.5785    0.0773 O   0  0
    2.5460    0.1034    0.0051 N   0  0
    3.3154   -1.1017   -0.0944 C   0  0
    4.8118   -0.7668    0.0252 C   0  0
    5.6357   -2.0635   -0.0750 C   0  0
   -3.3794    0.9017   -1.4451 H   0  0
   -3.5272   -0.5738    1.2456 H   0  0
   -1.2418   -0.6744    1.3273 H   0  0
   -1.0189    0.6896   -1.3762 H   0  0
   -2.1581    1.5774    1.2835 H   0  0
    0.6847    2.1452    0.3752 H   0  0
   -5.6370   -0.6770   -0.0604 H   0  0
   -4.7279   -1.2327   -1.4866 H   0  0
   -1.1324    3.3386    0.0505 H   0  0
   -5.4284    1.1762   -0.2965 H   0  0
   -3.9971   -3.1139   -0.2467 H   0  0
    3.0303   -1.7818    0.7082 H   0  0
    3.1253   -1.5754   -1.0575 H   0  0
    5.0986   -0.0907   -0.7803 H   0  0
    5.0017   -0.2888    0.9863 H   0  0
    6.6965   -1.8280    0.0096 H   0  0
    5.4457   -2.5419   -1.0358 H   0  0
    5.3488   -2.7399    0.7302 H   0  0
  1  2  1  0
  2  3  1  0
  3  4  1  0
  4  5  1  0
  5  6  1  0
  6  1  1  0
  4  7  1  0
  7  8  1  0
  8  9  1  0
  9  5  1  0
  2 10  1  0
  6 11  1  0
  1 12  1  0
 10 13  1  0
  8 14  2  0
 14 15  1  0
 15 16  1  0
 16 17  1  0
  1 18  1  0
  2 19  1  0
  4 20  1  0
  5 21  1  0
  6 22  1  0
  9 23  1  0
 10 24  1  0
 10 25  1  0
 11 26  1  0
 12 27  1  0
 13 28  1  0
 15 29  1  0
 15 30  1  0
 16 31  1  0
 16 32  1  0
 17 33  1  0
 17 34  1  0
 17 35  1  0
M  END
> <Name>
C10H18N2O4S

> <Ki>
2nM

> <Chemical Formula>
C10H18N2O4S

> <Forcefield>
MMFF

> <ForcefieldBase>
MMFF

> <ForcefieldFFML>
<?xml version="1.0" encoding="UTF-8"?>
<!DOCTYPE ffml SYSTEM "Ffml.dtd">
<ffml version="1.0">
<forcefield name="C10H18N2O4S-MMFF" derivedFrom="MMFF" base="MMFF">
<atomTypes>
<atomType
 name="C100"
 element="C"
 mass="12.011"
 annotation=""/>
<atomType
 name="O101"
 element="O"
 mass="16"
 annotation=""/>
<atomType
 name="S102"
 element="S"
 mass="32.066"
 annotation=""/>
<atomType
 name="N103"
 element="N"
 mass="14.007"
 annotation=""/>
<atomType
 name="H104"
 element="H"
 mass="1.008"
 annotation=""/>
</atomTypes>
<parameters>
</parameters>
</forcefield>
</ffml>

> <Reference>
Elbatrawy et al., 2020

$$$$
C10H16N2O4S
  SciTegic07212313583D

 33 34  0  0  0  0            999 V2000
   -3.4050    0.9065   -0.3532 C   0  0  2  0  0  0
   -3.4933   -0.5665    0.1566 C   0  0  2  0  0  0
   -2.3354   -1.3319   -0.2894 O   0  0
   -1.1559   -0.7266    0.2397 C   0  0  2  0  0  0
   -0.9628    0.7165   -0.2883 C   0  0  1  0  0  0
   -2.1202    1.5669    0.1959 C   0  0  1  0  0  0
    0.3656   -1.3915   -0.1540 S   0  0
    1.2780    0.0118   -0.0206 C   0  0
    0.4112    1.1314    0.0802 N   0  0
   -4.7706   -1.2176   -0.3965 C   0  0
   -2.0041    2.9049   -0.2910 O   0  0
   -4.5475    1.6426    0.0870 O   0  0
   -4.8574   -2.5633    0.0762 O   0  0
    2.5469    0.0590   -0.0022 N   0  0
    3.3035   -1.1543   -0.1056 C   0  0
    4.7662   -0.8456    0.0102 C   0  0
    5.6590   -1.8317   -0.0428 C   0  0
   -3.3734    0.9088   -1.4428 H   0  0
   -3.5297   -0.5694    1.2460 H   0  0
   -1.2450   -0.6878    1.3253 H   0  0
   -1.0146    0.6787   -1.3765 H   0  0
   -2.1444    1.5715    1.2856 H   0  0
    0.7033    2.1176    0.3752 H   0  0
   -5.6414   -0.6560   -0.0580 H   0  0
   -4.7376   -1.2159   -1.4860 H   0  0
   -1.1066    3.3267    0.0541 H   0  0
   -5.4192    1.1968   -0.2922 H   0  0
   -4.0182   -3.1039   -0.2494 H   0  0
    3.0115   -1.8332    0.6955 H   0  0
    3.1070   -1.6232   -1.0697 H   0  0
    5.0981    0.1848    0.1377 H   0  0
    5.3263   -2.8618   -0.1703 H   0  0
    6.7226   -1.6089    0.0413 H   0  0
  1  2  1  0
  2  3  1  0
  3  4  1  0
  4  5  1  0
  5  6  1  0
  6  1  1  0
  4  7  1  0
  7  8  1  0
  8  9  1  0
  9  5  1  0
  2 10  1  0
  6 11  1  0
  1 12  1  0
 10 13  1  0
  8 14  2  0
 14 15  1  0
 15 16  1  0
 16 17  2  0
  1 18  1  0
  2 19  1  0
  4 20  1  0
  5 21  1  0
  6 22  1  0
  9 23  1  0
 10 24  1  0
 10 25  1  0
 11 26  1  0
 12 27  1  0
 13 28  1  0
 15 29  1  0
 15 30  1  0
 16 31  1  0
 17 32  1  0
 17 33  1  0
M  END
> <Name>
C10H16N2O4S

> <Ki>
3.2nM

> <Chemical Formula>
C10H16N2O4S

> <Forcefield>
MMFF

> <ForcefieldBase>
MMFF

> <ForcefieldFFML>
<?xml version="1.0" encoding="UTF-8"?>
<!DOCTYPE ffml SYSTEM "Ffml.dtd">
<ffml version="1.0">
<forcefield name="C10H16N2O4S-MMFF" derivedFrom="MMFF" base="MMFF">
<atomTypes>
<atomType
 name="C100"
 element="C"
 mass="12.011"
 annotation=""/>
<atomType
 name="O101"
 element="O"
 mass="16"
 annotation=""/>
<atomType
 name="S102"
 element="S"
 mass="32.066"
 annotation=""/>
<atomType
 name="N103"
 element="N"
 mass="14.007"
 annotation=""/>
<atomType
 name="H104"
 element="H"
 mass="1.008"
 annotation=""/>
</atomTypes>
<parameters>
</parameters>
</forcefield>
</ffml>

> <Reference>
Elbatrawy et al., 2020

$$$$
C11H20N2O4S
  SciTegic07212313583D

 38 39  0  0  0  0            999 V2000
   -4.0009    0.9687   -0.3555 C   0  0  2  0  0  0
   -4.0960   -0.5028    0.1572 C   0  0  2  0  0  0
   -2.9409   -1.2735   -0.2858 O   0  0
   -1.7598   -0.6722    0.2435 C   0  0  2  0  0  0
   -1.5593    0.7688   -0.2870 C   0  0  1  0  0  0
   -2.7140    1.6254    0.1942 C   0  0  1  0  0  0
   -0.2421   -1.3453   -0.1479 S   0  0
    0.6772    0.0525   -0.0169 C   0  0
   -0.1826    1.1778    0.0819 N   0  0
   -5.3748   -1.1505   -0.3964 C   0  0
   -2.5918    2.9618   -0.2951 O   0  0
   -5.1411    1.7102    0.0818 O   0  0
   -5.4667   -2.4950    0.0787 O   0  0
    1.9475    0.0900    0.0010 N   0  0
    2.6882   -1.1328   -0.1012 C   0  0
    4.1929   -0.8412    0.0144 C   0  0
    4.9735   -2.1642   -0.0902 C   0  0
    6.4820   -1.8833    0.0290 C   0  0
   -3.9678    0.9687   -1.4450 H   0  0
   -4.1338   -0.5035    1.2465 H   0  0
   -1.8498   -0.6312    1.3290 H   0  0
   -1.6103    0.7289   -1.3751 H   0  0
   -2.7395    1.6322    1.2839 H   0  0
    0.1149    2.1628    0.3754 H   0  0
   -6.2440   -0.5853   -0.0601 H   0  0
   -5.3403   -1.1509   -1.4859 H   0  0
   -1.6930    3.3807    0.0501 H   0  0
   -6.0141    1.2671   -0.2978 H   0  0
   -4.6289   -3.0391   -0.2449 H   0  0
    2.3875   -1.8061    0.7016 H   0  0
    2.4833   -1.6005   -1.0642 H   0  0
    4.4978   -0.1733   -0.7913 H   0  0
    4.4003   -0.3705    0.9753 H   0  0
    4.6642   -2.8324    0.7135 H   0  0
    4.7666   -2.6324   -1.0525 H   0  0
    7.0336   -2.8204   -0.0451 H   0  0
    6.6900   -1.4150    0.9911 H   0  0
    6.7923   -1.2152   -0.7744 H   0  0
  1  2  1  0
  2  3  1  0
  3  4  1  0
  4  5  1  0
  5  6  1  0
  6  1  1  0
  4  7  1  0
  7  8  1  0
  8  9  1  0
  9  5  1  0
  2 10  1  0
  6 11  1  0
  1 12  1  0
 10 13  1  0
  8 14  2  0
 14 15  1  0
 15 16  1  0
 16 17  1  0
 17 18  1  0
  1 19  1  0
  2 20  1  0
  4 21  1  0
  5 22  1  0
  6 23  1  0
  9 24  1  0
 10 25  1  0
 10 26  1  0
 11 27  1  0
 12 28  1  0
 13 29  1  0
 15 30  1  0
 15 31  1  0
 16 32  1  0
 16 33  1  0
 17 34  1  0
 17 35  1  0
 18 36  1  0
 18 37  1  0
 18 38  1  0
M  END
> <Name>
C11H20N2O4S

> <Ki>
350nM

> <Chemical Formula>
C11H20N2O4S

> <Forcefield>
MMFF

> <ForcefieldBase>
MMFF

> <ForcefieldFFML>
<?xml version="1.0" encoding="UTF-8"?>
<!DOCTYPE ffml SYSTEM "Ffml.dtd">
<ffml version="1.0">
<forcefield name="C11H20N2O4S-MMFF" derivedFrom="MMFF" base="MMFF">
<atomTypes>
<atomType
 name="C100"
 element="C"
 mass="12.011"
 annotation=""/>
<atomType
 name="O101"
 element="O"
 mass="16"
 annotation=""/>
<atomType
 name="S102"
 element="S"
 mass="32.066"
 annotation=""/>
<atomType
 name="N103"
 element="N"
 mass="14.007"
 annotation=""/>
<atomType
 name="H104"
 element="H"
 mass="1.008"
 annotation=""/>
</atomTypes>
<parameters>
</parameters>
</forcefield>
</ffml>

> <Reference>
Elbatrawy et al., 2020

$$$$
GLcNAcstatin D
  SciTegic07212313583D

 51 53  0  0  0  0            999 V2000
   -4.3202    1.2182    0.5369 C   0  0  1  0  0  0
   -4.3715    0.3075   -0.7152 C   0  0  1  0  0  0
   -3.1759   -0.7072   -0.5953 C   0  0  1  0  0  0
   -1.8909    0.0272   -0.3164 C   0  0
   -1.8490    1.2776    0.2558 N   0  0
   -2.9998    2.1006    0.4617 C   0  0  1  0  0  0
   -0.7109   -0.4005   -0.5182 N   0  0
    0.1670    0.6338   -0.0823 C   0  0
   -0.5312    1.6696    0.3882 C   0  0
    1.6786    0.5723   -0.1613 C   0  0
    2.2959    1.9632    0.1436 C   0  0
    3.8107    1.9141    0.0809 C   0  0
    4.4480    0.7498   -0.0491 C   0  0
    5.9149    0.7159   -0.1078 C   0  0
    6.6126    1.8484   -0.0351 C   0  0
    5.9151    3.1289    0.1053 C   0  0
    4.5838    3.1607    0.1623 C   0  0
   -3.4291   -1.5627    0.5372 N   0  0
   -4.1232   -2.6905    0.3434 C   0  0
   -4.4299   -3.6117    1.4813 C   0  0
   -4.5381   -2.9696   -0.7882 O   0  0
   -5.3039   -4.7723    0.9583 C   0  0
   -5.5948   -0.4300   -0.7782 O   0  0
   -3.0437    3.0751   -0.7553 C   0  0
   -5.4431    2.0984    0.5901 O   0  0
   -4.1584    3.9630   -0.6474 O   0  0
   -4.2966    0.6020    1.4357 H   0  0
   -4.2561    0.9102   -1.6160 H   0  0
   -3.0860   -1.2987   -1.5064 H   0  0
   -2.8847    2.6695    1.3844 H   0  0
   -0.1489    2.6097    0.7860 H   0  0
    2.0466   -0.1506    0.5668 H   0  0
    1.9729    0.2613   -1.1636 H   0  0
    1.9325    2.6824   -0.5904 H   0  0
    1.9910    2.2767    1.1420 H   0  0
    3.8793   -0.1779   -0.1118 H   0  0
    6.4336   -0.2372   -0.2111 H   0  0
    7.7014    1.8223   -0.0800 H   0  0
    6.4850    4.0562    0.1632 H   0  0
    4.0671    4.1145    0.2696 H   0  0
   -3.0701   -1.3019    1.5108 H   0  0
   -3.5015   -4.0085    1.8922 H   0  0
   -4.9685   -3.0685    2.2577 H   0  0
   -5.5350   -5.4520    1.7784 H   0  0
   -4.7640   -5.3126    0.1806 H   0  0
   -6.2305   -4.3728    0.5460 H   0  0
   -5.6839   -1.0348    0.0756 H   0  0
   -2.1228    3.6577   -0.7813 H   0  0
   -3.1342    2.4965   -1.6746 H   0  0
   -5.4509    2.7087   -0.2644 H   0  0
   -5.0486    3.4068   -0.6247 H   0  0
  1  2  1  0
  2  3  1  0
  3  4  1  0
  4  5  1  0
  5  6  1  0
  6  1  1  0
  4  7  2  0
  7  8  1  0
  8  9  2  0
  9  5  1  0
  8 10  1  0
 10 11  1  0
 11 12  1  0
 12 13  2  0
 13 14  1  0
 14 15  2  0
 15 16  1  0
 16 17  2  0
 17 12  1  0
  3 18  1  0
 18 19  1  0
 19 20  1  0
 19 21  2  0
 20 22  1  0
  2 23  1  0
  6 24  1  0
  1 25  1  0
 24 26  1  0
  1 27  1  0
  2 28  1  0
  3 29  1  0
  6 30  1  0
  9 31  1  0
 10 32  1  0
 10 33  1  0
 11 34  1  0
 11 35  1  0
 13 36  1  0
 14 37  1  0
 15 38  1  0
 16 39  1  0
 17 40  1  0
 18 41  1  0
 20 42  1  0
 20 43  1  0
 22 44  1  0
 22 45  1  0
 22 46  1  0
 23 47  1  0
 24 48  1  0
 24 49  1  0
 25 50  1  0
 26 51  1  0
M  END
> <Name>
GLcNAcstatin D

> <Reference>
Elbatrawy et al., 2020

> <Chemical Formula>
C19H25N3O4

> <ForcefieldFFML>
<?xml version="1.0" encoding="UTF-8"?>
<!DOCTYPE ffml SYSTEM "Ffml.dtd">
<ffml version="1.0">
<forcefield name="GLcNAcstatin D-MMFF" derivedFrom="MMFF" base="MMFF">
<atomTypes>
<atomType
 name="C100"
 element="C"
 mass="12.011"
 annotation=""/>
<atomType
 name="N101"
 element="N"
 mass="14.007"
 annotation=""/>
<atomType
 name="O102"
 element="O"
 mass="16"
 annotation=""/>
<atomType
 name="H103"
 element="H"
 mass="1.008"
 annotation=""/>
</atomTypes>
<parameters>
</parameters>
</forcefield>
</ffml>

> <ForcefieldBase>
MMFF

> <Ki>
0.74nM

> <Forcefield>
MMFF

$$$$
GLcNAcstatin F
  SciTegic07212313583D

 52 54  0  0  0  0            999 V2000
   -4.2385    1.7370    0.5850 C   0  0  1  0  0  0
   -4.3030    0.8652   -0.6899 C   0  0  1  0  0  0
   -3.1041   -0.1621   -0.6276 C   0  0  1  0  0  0
   -1.8279    0.5629   -0.3151 C   0  0
   -1.7633    1.7956    0.2830 N   0  0
   -2.9160    2.6186    0.5135 C   0  0  1  0  0  0
   -0.6310    0.1260   -0.5277 N   0  0
    0.2427    1.1520   -0.0656 C   0  0
   -0.4488    2.1795    0.4248 C   0  0
    1.7581    1.0880   -0.1490 C   0  0
    2.3728    2.4821    0.1550 C   0  0
    3.8885    2.4426    0.0868 C   0  0
    4.5340    1.2831   -0.0425 C   0  0
    6.0014    1.2602   -0.1059 C   0  0
    6.6909    2.3982   -0.0379 C   0  0
    5.9843    3.6736    0.1016 C   0  0
    4.6529    3.6955    0.1628 C   0  0
   -3.3570   -1.1166    0.4343 N   0  0
   -4.0461   -2.2170    0.0904 C   0  0
   -4.3692   -3.3110    1.0574 C   0  0
   -4.4395   -2.3410   -1.0755 O   0  0
   -5.1680   -4.3726    0.2531 C   0  0
   -5.5293    0.1364   -0.7785 O   0  0
   -2.9589    3.6184   -0.6874 C   0  0
   -5.3576    2.6225    0.6663 O   0  0
   -4.0707    4.5076   -0.5647 O   0  0
   -5.5854   -5.8023    1.2764 S   0  0
   -4.2087    1.0982    1.4676 H   0  0
   -4.1928    1.4993   -1.5696 H   0  0
   -3.0115   -0.6829   -1.5807 H   0  0
   -2.7923    3.1702    1.4455 H   0  0
   -0.0629    3.1097    0.8420 H   0  0
    2.1282    0.3653    0.5782 H   0  0
    2.0503    0.7770   -1.1520 H   0  0
    2.0031    3.2003   -0.5768 H   0  0
    2.0703    2.7930    1.1549 H   0  0
    3.9720    0.3510   -0.1013 H   0  0
    6.5269    0.3108   -0.2087 H   0  0
    7.7797    2.3801   -0.0860 H   0  0
    6.5475    4.6053    0.1555 H   0  0
    4.1295    4.6457    0.2694 H   0  0
   -3.0141   -0.9536    1.4347 H   0  0
   -3.4529   -3.7478    1.4546 H   0  0
   -4.9735   -2.9245    1.8781 H   0  0
   -6.0885   -3.9193   -0.1145 H   0  0
   -4.5640   -4.7055   -0.5910 H   0  0
   -5.6228   -0.4950    0.0552 H   0  0
   -2.0365    4.1990   -0.7026 H   0  0
   -3.0508    3.0570   -1.6172 H   0  0
   -5.3649    3.2560   -0.1710 H   0  0
   -4.9627    3.9538   -0.5525 H   0  0
   -4.4603   -6.3721    1.7292 H   0  0
  1  2  1  0
  2  3  1  0
  3  4  1  0
  4  5  1  0
  5  6  1  0
  6  1  1  0
  4  7  2  0
  7  8  1  0
  8  9  2  0
  9  5  1  0
  8 10  1  0
 10 11  1  0
 11 12  1  0
 12 13  2  0
 13 14  1  0
 14 15  2  0
 15 16  1  0
 16 17  2  0
 17 12  1  0
  3 18  1  0
 18 19  1  0
 19 20  1  0
 19 21  2  0
 20 22  1  0
  2 23  1  0
  6 24  1  0
  1 25  1  0
 24 26  1  0
 22 27  1  0
  1 28  1  0
  2 29  1  0
  3 30  1  0
  6 31  1  0
  9 32  1  0
 10 33  1  0
 10 34  1  0
 11 35  1  0
 11 36  1  0
 13 37  1  0
 14 38  1  0
 15 39  1  0
 16 40  1  0
 17 41  1  0
 18 42  1  0
 20 43  1  0
 20 44  1  0
 22 45  1  0
 22 46  1  0
 23 47  1  0
 24 48  1  0
 24 49  1  0
 25 50  1  0
 26 51  1  0
 27 52  1  0
M  END
> <Name>
GLcNAcstatin F

> <Reference>
Elbatrawy et al., 2020

> <Chemical Formula>
C19H25N3O4S

> <ForcefieldFFML>
<?xml version="1.0" encoding="UTF-8"?>
<!DOCTYPE ffml SYSTEM "Ffml.dtd">
<ffml version="1.0">
<forcefield name="GLcNAcstatin F-MMFF" derivedFrom="MMFF" base="MMFF">
<atomTypes>
<atomType
 name="C100"
 element="C"
 mass="12.011"
 annotation=""/>
<atomType
 name="N101"
 element="N"
 mass="14.007"
 annotation=""/>
<atomType
 name="O102"
 element="O"
 mass="16"
 annotation=""/>
<atomType
 name="S103"
 element="S"
 mass="32.066"
 annotation=""/>
<atomType
 name="H104"
 element="H"
 mass="1.008"
 annotation=""/>
</atomTypes>
<parameters>
</parameters>
</forcefield>
</ffml>

> <ForcefieldBase>
MMFF

> <Ki>
11.2nM

> <Forcefield>
MMFF

$$$$
GLcNAcstatin G
  SciTegic07212313583D

 53 55  0  0  0  0            999 V2000
   -3.7926    2.0301    0.6001 C   0  0  1  0  0  0
   -3.8679    1.1758   -0.6864 C   0  0  1  0  0  0
   -2.6743    0.1394   -0.6479 C   0  0  1  0  0  0
   -1.3880    0.8534   -0.3281 C   0  0
   -1.3200    2.0822    0.2828 N   0  0
   -2.4658    2.9070    0.5284 C   0  0  1  0  0  0
   -0.1960    0.4173   -0.5489 N   0  0
    0.6845    1.4371   -0.0791 C   0  0
   -0.0042    2.4609    0.4232 C   0  0
    2.2003    1.3764   -0.1667 C   0  0
    2.8077    2.7736    0.1443 C   0  0
    4.3244    2.7499    0.0808 C   0  0
    4.9836    1.5980   -0.0466 C   0  0
    6.4518    1.5925   -0.1044 C   0  0
    7.1280    2.7384   -0.0332 C   0  0
    6.4062    4.0054    0.1043 C   0  0
    5.0745    4.0117    0.1603 C   0  0
   -2.9402   -0.8460    0.3890 N   0  0
   -3.6389   -1.9259   -0.0073 C   0  0
   -4.0042   -3.0260    0.8721 C   0  0
   -4.0143   -1.9972   -1.1832 O   0  0
   -4.7182   -4.0010    0.3038 C   0  0
   -5.1001    0.4572   -0.7811 O   0  0
   -2.5117    3.9201   -0.6630 C   0  0
   -4.9058    2.9208    0.6992 O   0  0
   -3.6194    4.8124   -0.5268 O   0  0
   -5.1698   -5.1795    1.0332 C   0  0
   -5.8894   -6.1016    0.3933 C   0  0
   -3.7597    1.3802    1.4745 H   0  0
   -3.7580    1.8222   -1.5572 H   0  0
   -2.5882   -0.3579   -1.6140 H   0  0
   -2.3334    3.4485    1.4650 H   0  0
    0.3851    3.3862    0.8479 H   0  0
    2.5747    0.6513    0.5558 H   0  0
    2.4917    1.0721   -1.1720 H   0  0
    2.4344    3.4919   -0.5856 H   0  0
    2.5003    3.0781    1.1447 H   0  0
    4.4327    0.6594   -0.1080 H   0  0
    6.9888    0.6494   -0.2058 H   0  0
    8.2171    2.7329   -0.0772 H   0  0
    6.9583    4.9436    0.1607 H   0  0
    4.5398    4.9557    0.2654 H   0  0
   -2.6036   -0.7207    1.3969 H   0  0
   -3.7150   -3.0525    1.9227 H   0  0
   -4.9745   -3.9116   -0.7519 H   0  0
   -5.1958   -0.1848    0.0442 H   0  0
   -1.5873    4.4975   -0.6769 H   0  0
   -2.6101    3.3683   -1.5978 H   0  0
   -4.9133    3.5659   -0.1293 H   0  0
   -4.5136    4.2620   -0.5159 H   0  0
   -4.9226   -5.3052    2.0873 H   0  0
   -6.1323   -5.9685   -0.6609 H   0  0
   -6.2347   -6.9887    0.9243 H   0  0
  1  2  1  0
  2  3  1  0
  3  4  1  0
  4  5  1  0
  5  6  1  0
  6  1  1  0
  4  7  2  0
  7  8  1  0
  8  9  2  0
  9  5  1  0
  8 10  1  0
 10 11  1  0
 11 12  1  0
 12 13  2  0
 13 14  1  0
 14 15  2  0
 15 16  1  0
 16 17  2  0
 17 12  1  0
  3 18  1  0
 18 19  1  0
 19 20  1  0
 19 21  2  0
 20 22  2  0
  2 23  1  0
  6 24  1  0
  1 25  1  0
 24 26  1  0
 22 27  1  0
 27 28  2  0
  1 29  1  0
  2 30  1  0
  3 31  1  0
  6 32  1  0
  9 33  1  0
 10 34  1  0
 10 35  1  0
 11 36  1  0
 11 37  1  0
 13 38  1  0
 14 39  1  0
 15 40  1  0
 16 41  1  0
 17 42  1  0
 18 43  1  0
 20 44  1  0
 22 45  1  0
 23 46  1  0
 24 47  1  0
 24 48  1  0
 25 49  1  0
 26 50  1  0
 27 51  1  0
 28 52  1  0
 28 53  1  0
M  END
> <Name>
GLcNAcstatin G

> <Reference>
Elbatrawy et al., 2020

> <Chemical Formula>
C21H25N3O4

> <ForcefieldFFML>
<?xml version="1.0" encoding="UTF-8"?>
<!DOCTYPE ffml SYSTEM "Ffml.dtd">
<ffml version="1.0">
<forcefield name="GLcNAcstatin G-MMFF" derivedFrom="MMFF" base="MMFF">
<atomTypes>
<atomType
 name="C100"
 element="C"
 mass="12.011"
 annotation=""/>
<atomType
 name="N101"
 element="N"
 mass="14.007"
 annotation=""/>
<atomType
 name="O102"
 element="O"
 mass="16"
 annotation=""/>
<atomType
 name="H103"
 element="H"
 mass="1.008"
 annotation=""/>
</atomTypes>
<parameters>
</parameters>
</forcefield>
</ffml>

> <ForcefieldBase>
MMFF

> <Ki>
4.1nM

> <Forcefield>
MMFF

$$$$
GLcNAcstatin H
  SciTegic07212313583D

 57 59  0  0  0  0            999 V2000
   -3.5714    1.8462    0.5771 C   0  0  1  0  0  0
   -3.6422    0.9810   -0.7029 C   0  0  1  0  0  0
   -2.4630   -0.0690   -0.6318 C   0  0  1  0  0  0
   -1.1641    0.6355   -0.3187 C   0  0
   -1.0979    1.8706    0.2856 N   0  0
   -2.2347    2.7067    0.5166 C   0  0  1  0  0  0
    0.0167    0.1968   -0.5372 N   0  0
    0.9073    1.2136   -0.0753 C   0  0
    0.2220    2.2435    0.4219 C   0  0
    2.4219    1.1488   -0.1641 C   0  0
    3.0339    2.5451    0.1434 C   0  0
    4.5507    2.5184    0.0799 C   0  0
    5.2074    1.3650   -0.0489 C   0  0
    6.6756    1.3564   -0.1066 C   0  0
    7.3544    2.5007   -0.0337 C   0  0
    6.6356    3.7691    0.1053 C   0  0
    5.3038    3.7783    0.1611 C   0  0
   -2.7545   -1.0150    0.4333 N   0  0
   -3.4967   -2.0807    0.0851 C   0  0
   -3.9141   -3.1467    1.0476 C   0  0
   -3.8863   -2.1818   -1.0842 O   0  0
   -4.8845    0.2794   -0.7990 O   0  0
   -2.2617    3.7140   -0.6785 C   0  0
   -4.6752    2.7488    0.6587 O   0  0
   -3.3616    4.6177   -0.5533 O   0  0
   -4.8502   -4.0783    0.2295 C   0  0
   -5.3910   -5.2485    1.0611 C   0  0
   -6.3277   -6.0928    0.1673 C   0  0
   -3.5559    1.2026    1.4566 H   0  0
   -3.5130    1.6156   -1.5796 H   0  0
   -2.3787   -0.5960   -1.5822 H   0  0
   -2.1059    3.2508    1.4522 H   0  0
    0.6159    3.1695    0.8409 H   0  0
    2.7949    0.4242    0.5597 H   0  0
    2.7114    0.8415   -1.1689 H   0  0
    2.6622    3.2626   -0.5880 H   0  0
    2.7275    2.8528    1.1432 H   0  0
    4.6545    0.4277   -0.1115 H   0  0
    7.2105    0.4122   -0.2092 H   0  0
    8.4435    2.4927   -0.0775 H   0  0
    7.1898    4.7059    0.1632 H   0  0
    4.7713    4.7234    0.2674 H   0  0
   -2.4001   -0.8719    1.4328 H   0  0
   -3.0461   -3.6975    1.4099 H   0  0
   -4.4483   -2.7125    1.8927 H   0  0
   -4.9958   -0.3518    0.0327 H   0  0
   -1.3315    4.2821   -0.6885 H   0  0
   -2.3592    3.1592   -1.6117 H   0  0
   -4.6683    3.3872   -0.1750 H   0  0
   -4.2612    4.0762   -0.5462 H   0  0
   -5.6927   -3.4918   -0.1371 H   0  0
   -4.2912   -4.4797   -0.6158 H   0  0
   -4.5627   -5.8646    1.4110 H   0  0
   -5.9465   -4.8654    1.9172 H   0  0
   -6.7221   -6.9304    0.7427 H   0  0
   -5.7696   -6.4717   -0.6889 H   0  0
   -7.1530   -5.4727   -0.1829 H   0  0
  1  2  1  0
  2  3  1  0
  3  4  1  0
  4  5  1  0
  5  6  1  0
  6  1  1  0
  4  7  2  0
  7  8  1  0
  8  9  2  0
  9  5  1  0
  8 10  1  0
 10 11  1  0
 11 12  1  0
 12 13  2  0
 13 14  1  0
 14 15  2  0
 15 16  1  0
 16 17  2  0
 17 12  1  0
  3 18  1  0
 18 19  1  0
 19 20  1  0
 19 21  2  0
  2 22  1  0
  6 23  1  0
  1 24  1  0
 23 25  1  0
 20 26  1  0
 26 27  1  0
 27 28  1  0
  1 29  1  0
  2 30  1  0
  3 31  1  0
  6 32  1  0
  9 33  1  0
 10 34  1  0
 10 35  1  0
 11 36  1  0
 11 37  1  0
 13 38  1  0
 14 39  1  0
 15 40  1  0
 16 41  1  0
 17 42  1  0
 18 43  1  0
 20 44  1  0
 20 45  1  0
 22 46  1  0
 23 47  1  0
 23 48  1  0
 24 49  1  0
 25 50  1  0
 26 51  1  0
 26 52  1  0
 27 53  1  0
 27 54  1  0
 28 55  1  0
 28 56  1  0
 28 57  1  0
M  END
> <Name>
GLcNAcstatin H

> <Reference>
Elbatrawy et al., 2020

> <Chemical Formula>
C21H29N3O4

> <ForcefieldFFML>
<?xml version="1.0" encoding="UTF-8"?>
<!DOCTYPE ffml SYSTEM "Ffml.dtd">
<ffml version="1.0">
<forcefield name="GLcNAcstatin H-MMFF" derivedFrom="MMFF" base="MMFF">
<atomTypes>
<atomType
 name="C100"
 element="C"
 mass="12.011"
 annotation=""/>
<atomType
 name="N101"
 element="N"
 mass="14.007"
 annotation=""/>
<atomType
 name="O102"
 element="O"
 mass="16"
 annotation=""/>
<atomType
 name="H103"
 element="H"
 mass="1.008"
 annotation=""/>
</atomTypes>
<parameters>
</parameters>
</forcefield>
</ffml>

> <ForcefieldBase>
MMFF

> <Ki>
2.6nM

> <Forcefield>
MMFF

$$$$
C8H16N2O4
  DSViewer          3D                             0

 30 30  0  0  0  0  0  0  0  0999 V2000
    0.5504    0.6050   -0.3988 C   0  0  2  0  0  0
   -0.0074   -0.6850    0.2496 C   0  0  2  0  0  0
    1.0860   -1.6872    0.0365 N   0  0
    2.2773   -0.8255   -0.2344 C   0  0  1  0  0  0
    1.8814    0.5498    0.2973 C   0  0  1  0  0  0
    3.5931   -1.3805    0.3359 C   0  0
   -0.2127    1.7785   -0.1206 O   0  0
    2.8013    1.5781   -0.0735 O   0  0
   -1.3889   -1.1889   -0.2539 C   0  0
    4.6647   -0.4887    0.0229 O   0  0
   -2.5191   -0.2312    0.0398 C   0  0
   -3.7407   -0.5020   -0.4070 N   0  0
   -2.3295    0.7861    0.7175 O   0  0
   -4.8260    0.3894   -0.1163 C   0  0
    0.6733    0.4725   -1.4737 H   0  0
   -0.0901   -0.5078    1.3219 H   0  0
    0.8708   -2.3206   -0.7986 H   0  0
    2.3908   -0.7445   -1.3155 H   0  0
    1.7500    0.5218    1.3790 H   0  0
    3.5068   -1.4780    1.4181 H   0  0
    3.7948   -2.3578   -0.1026 H   0  0
   -1.1916    1.6531   -0.4791 H   0  0
    3.7530    1.3512    0.3076 H   0  0
   -1.3313   -1.3350   -1.3326 H   0  0
   -1.6074   -2.1404    0.2309 H   0  0
    4.7489   -0.3941   -1.0195 H   0  0
   -3.9150   -1.3859   -0.9843 H   0  0
   -5.7429    0.0040   -0.5623 H   0  0
   -4.6082    1.3746   -0.5288 H   0  0
   -4.9530    0.4681    0.9634 H   0  0
  1  2  1  0  0  0
  2  3  1  0  0  0
  3  4  1  0  0  0
  4  5  1  0  0  0
  5  1  1  0  0  0
  4  6  1  0  0  0
  1  7  1  0  0  0
  5  8  1  0  0  0
  2  9  1  0  0  0
  6 10  1  0  0  0
  9 11  1  0  0  0
 11 12  1  0  0  0
 11 13  2  0  0  0
 12 14  1  0  0  0
  1 15  1  0  0  0
  2 16  1  0  0  0
  3 17  1  0  0  0
  4 18  1  0  0  0
  5 19  1  0  0  0
  6 20  1  0  0  0
  6 21  1  0  0  0
  7 22  1  0  0  0
  8 23  1  0  0  0
  9 24  1  0  0  0
  9 25  1  0  0  0
 10 26  1  0  0  0
 12 27  1  0  0  0
 14 28  1  0  0  0
 14 29  1  0  0  0
 14 30  1  0  0  0
M  END
> <Chemical Formula>
C8H16N2O4

> <Forcefield>
MMFF

> <ForcefieldBase>
MMFF

> <ForcefieldFFML>
<?xml version="1.0" encoding="UTF-8"?>
<!DOCTYPE ffml SYSTEM "Ffml.dtd">
<ffml version="1.0">
<forcefield name="C8H16N2O4-MMFF" derivedFrom="MMFF" base="MMFF">
<atomTypes>
<atomType
 name="C100"
 element="C"
 mass="12.011"
 annotation=""/>
<atomType
 name="N101"
 element="N"
 mass="14.007"
 annotation=""/>
<atomType
 name="O102"
 element="O"
 mass="16"
 annotation=""/>
<atomType
 name="H103"
 element="H"
 mass="1.008"
 annotation=""/>
</atomTypes>
<parameters>
</parameters>
</forcefield>
</ffml>

> <Reference>
Elbatrawy et al., 2020

$$$$
C8H16N2O4
  DSViewer          3D                             0

 30 30  0  0  0  0  0  0  0  0999 V2000
    0.5016    0.6385   -0.3078 C   0  0  1  0  0  0
   -0.0126   -0.7197    0.2025 C   0  0  2  0  0  0
    1.0906   -1.6826   -0.1372 N   0  0
    2.2768   -0.7826   -0.3099 C   0  0  1  0  0  0
    1.8498    0.5282    0.3631 C   0  0  1  0  0  0
    3.5974   -1.3702    0.2142 C   0  0
    0.6337    0.6746   -1.7321 O   0  0
    2.7485    1.6097    0.1105 O   0  0
   -1.3973   -1.1631   -0.3298 C   0  0
    4.6557   -0.4348   -0.0021 O   0  0
   -2.5009   -0.2110    0.0691 C   0  0
   -3.7418   -0.4366   -0.3508 N   0  0
   -2.2691    0.7635    0.7952 O   0  0
   -4.8020    0.4511    0.0294 C   0  0
   -0.0846    1.4738    0.0752 H   0  0
   -0.0786   -0.6617    1.2889 H   0  0
    0.8744   -2.2125   -1.0413 H   0  0
    2.3969   -0.5880   -1.3756 H   0  0
    1.7276    0.3804    1.4361 H   0  0
    3.5057   -1.5742    1.2810 H   0  0
    3.8180   -2.2968   -0.3158 H   0  0
    1.3133   -0.0643   -2.0399 H   0  0
    3.7030    1.3642    0.4727 H   0  0
   -1.3543   -1.2125   -1.4178 H   0  0
   -1.6259   -2.1508    0.0706 H   0  0
    4.7446   -0.2376   -1.0296 H   0  0
   -3.9499   -1.2816   -0.9734 H   0  0
   -5.7393    0.1064   -0.4070 H   0  0
   -4.5819    1.4561   -0.3309 H   0  0
   -4.8916    0.4666    1.1157 H   0  0
  1  2  1  0  0  0
  2  3  1  0  0  0
  3  4  1  0  0  0
  4  5  1  0  0  0
  5  1  1  0  0  0
  4  6  1  0  0  0
  1  7  1  0  0  0
  5  8  1  0  0  0
  2  9  1  0  0  0
  6 10  1  0  0  0
  9 11  1  0  0  0
 11 12  1  0  0  0
 11 13  2  0  0  0
 12 14  1  0  0  0
  1 15  1  0  0  0
  2 16  1  0  0  0
  3 17  1  0  0  0
  4 18  1  0  0  0
  5 19  1  0  0  0
  6 20  1  0  0  0
  6 21  1  0  0  0
  7 22  1  0  0  0
  8 23  1  0  0  0
  9 24  1  0  0  0
  9 25  1  0  0  0
 10 26  1  0  0  0
 12 27  1  0  0  0
 14 28  1  0  0  0
 14 29  1  0  0  0
 14 30  1  0  0  0
M  END
> <Chemical Formula>
C8H16N2O4

> <Forcefield>
MMFF

> <ForcefieldBase>
MMFF

> <ForcefieldFFML>
<?xml version="1.0" encoding="UTF-8"?>
<!DOCTYPE ffml SYSTEM "Ffml.dtd">
<ffml version="1.0">
<forcefield name="C8H16N2O4-MMFF" derivedFrom="MMFF" base="MMFF">
<atomTypes>
<atomType
 name="C100"
 element="C"
 mass="12.011"
 annotation=""/>
<atomType
 name="N101"
 element="N"
 mass="14.007"
 annotation=""/>
<atomType
 name="O102"
 element="O"
 mass="16"
 annotation=""/>
<atomType
 name="H103"
 element="H"
 mass="1.008"
 annotation=""/>
</atomTypes>
<parameters>
</parameters>
</forcefield>
</ffml>

> <Reference>
Elbatrawy et al., 2020

$$$$
C24H32N2O4
  DSViewer          3D                             0

 62 64  0  0  0  0  0  0  0  0999 V2000
    0.1747    3.8763   -0.4965 C   0  0  2  0  0  0
   -0.3235    2.5561    0.1926 C   0  0  2  0  0  0
    0.7981    1.6324   -0.1402 N   0  0
    2.0396    2.5028   -0.2442 C   0  0  1  0  0  0
    1.4958    3.8740    0.2038 C   0  0  1  0  0  0
    3.2980    2.1509    0.5895 C   0  0
   -0.6177    5.0263   -0.1987 O   0  0
    2.3828    4.9487   -0.1084 O   0  0
   -1.7225    2.0353   -0.2639 C   0  0
    4.3145    3.1277    0.3572 O   0  0
   -2.8372    2.9949    0.1239 C   0  0
   -4.0883    2.7691   -0.2679 N   0  0
   -2.6005    3.9795    0.8317 O   0  0
   -5.1253    3.6861    0.1275 C   0  0
   -6.5023    3.1309   -0.2787 C   0  0
    0.8319    0.2447    0.4476 C   0  0
    1.8343   -0.7368   -0.2857 C   0  0
    1.8309   -2.2287    0.2668 C   0  0
    3.2207   -2.9171    0.0835 C   0  0
    0.4811   -3.0701    0.1204 C   0  0
    3.4079   -4.2454    0.1902 C   0  0
    4.7367   -4.8343    0.0231 C   0  0
    5.7846   -4.0583   -0.2315 C   0  0
    5.6020   -2.6111   -0.3445 C   0  0
    4.3922   -2.0763   -0.1964 C   0  0
   -0.6413   -2.4828   -0.2727 C   0  0
   -1.8932   -3.2299   -0.4166 C   0  0
   -1.9231   -4.5342   -0.1564 C   0  0
   -0.7110   -5.2110    0.2756 C   0  0
    0.4263   -4.5275    0.4115 C   0  0
    0.2942    3.7432   -1.5718 H   0  0
   -0.3421    2.7098    1.2715 H   0  0
    2.3275    2.5708   -1.2933 H   0  0
    1.3269    3.8545    1.2805 H   0  0
    3.0402    2.1404    1.6486 H   0  0
    3.6653    1.1679    0.2947 H   0  0
   -1.6044    4.8647   -0.5196 H   0  0
    3.3027    4.7952    0.3739 H   0  0
   -1.7188    1.9185   -1.3476 H   0  0
   -1.9095    1.0694    0.2055 H   0  0
    4.5636    3.1385   -0.6628 H   0  0
   -4.3211    1.9157   -0.8700 H   0  0
   -5.0951    3.8204    1.2088 H   0  0
   -4.9643    4.6460   -0.3631 H   0  0
   -7.2807    3.8312    0.0243 H   0  0
   -6.6668    2.1713    0.2114 H   0  0
   -6.5360    2.9967   -1.3599 H   0  0
    1.1302    0.3220    1.4932 H   0  0
   -0.1705   -0.1789    0.3856 H   0  0
    1.5681   -0.7659   -1.3423 H   0  0
    2.8422   -0.3367   -0.1753 H   0  0
    1.8377   -2.0451    1.3412 H   0  0
    2.5570   -4.8921    0.4044 H   0  0
    4.8674   -5.9131    0.1078 H   0  0
    6.7746   -4.4973   -0.3555 H   0  0
    6.4586   -1.9694   -0.5505 H   0  0
    4.2688   -0.9969   -0.2842 H   0  0
   -0.6320   -1.4157   -0.4947 H   0  0
   -2.8001   -2.7171   -0.7368 H   0  0
   -2.8524   -5.0931   -0.2667 H   0  0
   -0.7317   -6.2797    0.4890 H   0  0
    1.3279   -5.0442    0.7404 H   0  0
  1  2  1  0  0  0
  2  3  1  0  0  0
  3  4  1  0  0  0
  4  5  1  0  0  0
  5  1  1  0  0  0
  4  6  1  0  0  0
  1  7  1  0  0  0
  5  8  1  0  0  0
  2  9  1  0  0  0
  6 10  1  0  0  0
  9 11  1  0  0  0
 11 12  1  0  0  0
 11 13  2  0  0  0
 12 14  1  0  0  0
 14 15  1  0  0  0
  3 16  1  0  0  0
 16 17  1  0  0  0
 17 18  1  0  0  0
 18 19  1  0  0  0
 18 20  1  0  0  0
 19 21  2  0  0  0
 21 22  1  0  0  0
 22 23  2  0  0  0
 23 24  1  0  0  0
 24 25  2  0  0  0
 25 19  1  0  0  0
 20 26  2  0  0  0
 26 27  1  0  0  0
 27 28  2  0  0  0
 28 29  1  0  0  0
 29 30  2  0  0  0
 30 20  1  0  0  0
  1 31  1  0  0  0
  2 32  1  0  0  0
  4 33  1  0  0  0
  5 34  1  0  0  0
  6 35  1  0  0  0
  6 36  1  0  0  0
  7 37  1  0  0  0
  8 38  1  0  0  0
  9 39  1  0  0  0
  9 40  1  0  0  0
 10 41  1  0  0  0
 12 42  1  0  0  0
 14 43  1  0  0  0
 14 44  1  0  0  0
 15 45  1  0  0  0
 15 46  1  0  0  0
 15 47  1  0  0  0
 16 48  1  0  0  0
 16 49  1  0  0  0
 17 50  1  0  0  0
 17 51  1  0  0  0
 18 52  1  0  0  0
 21 53  1  0  0  0
 22 54  1  0  0  0
 23 55  1  0  0  0
 24 56  1  0  0  0
 25 57  1  0  0  0
 26 58  1  0  0  0
 27 59  1  0  0  0
 28 60  1  0  0  0
 29 61  1  0  0  0
 30 62  1  0  0  0
M  END
> <IC50>
3.7nM

> <Ki>
64nM

> <Chemical Formula>
C24H32N2O4

> <Forcefield>
MMFF

> <ForcefieldBase>
MMFF

> <ForcefieldFFML>
<?xml version="1.0" encoding="UTF-8"?>
<!DOCTYPE ffml SYSTEM "Ffml.dtd">
<ffml version="1.0">
<forcefield name="C24H32N2O4-MMFF" derivedFrom="MMFF" base="MMFF">
<atomTypes>
<atomType
 name="C100"
 element="C"
 mass="12.011"
 annotation=""/>
<atomType
 name="N101"
 element="N"
 mass="14.007"
 annotation=""/>
<atomType
 name="O102"
 element="O"
 mass="16"
 annotation=""/>
<atomType
 name="H103"
 element="H"
 mass="1.008"
 annotation=""/>
</atomTypes>
<parameters>
</parameters>
</forcefield>
</ffml>

> <Reference>
Elbatrawy et al., 2020

$$$$
C13H26N2O4
  DSViewer          3D                             0

 45 45  0  0  0  0  0  0  0  0999 V2000
    0.2124    2.9019   -0.3641 C   0  0  1  0  0  0
   -0.2582    1.5156    0.1132 C   0  0  2  0  0  0
    0.8588    0.6233   -0.3327 N   0  0
    2.0859    1.5461   -0.3271 C   0  0  1  0  0  0
    1.5518    2.8117    0.3438 C   0  0  1  0  0  0
    3.4115    1.0556    0.3167 C   0  0
    0.3517    2.9837   -1.7848 O   0  0
    2.4206    3.9325    0.1758 O   0  0
   -1.6503    1.0559   -0.3884 C   0  0
    4.4057    2.0742    0.2142 O   0  0
   -2.7531    1.9852    0.0801 C   0  0
   -4.0031    1.7806   -0.3223 N   0  0
   -2.5066    2.9309    0.8401 O   0  0
   -5.0517    2.6561    0.1189 C   0  0
    0.8871   -0.7054    0.3544 C   0  0
    1.7732   -1.7163   -0.4368 C   0  0
    1.9265   -3.0373    0.3296 C   0  0
    2.8748   -3.9542   -0.4693 C   0  0
    3.0958   -5.2715    0.2936 C   0  0
   -0.4082    3.7049    0.0337 H   0  0
   -0.2747    1.5196    1.2030 H   0  0
    2.3048    1.7985   -1.3646 H   0  0
    1.3938    2.6255    1.4061 H   0  0
    3.2388    0.8235    1.3676 H   0  0
    3.7559    0.1608   -0.2017 H   0  0
    1.0579    2.2775   -2.1089 H   0  0
    3.3575    3.7161    0.5975 H   0  0
   -1.6440    1.0374   -1.4782 H   0  0
   -1.8487    0.0537   -0.0086 H   0  0
    4.5743    2.2989   -0.7976 H   0  0
   -4.2279    0.9632   -0.9753 H   0  0
   -6.0000    2.3336   -0.3108 H   0  0
   -4.8351    3.6746   -0.2034 H   0  0
   -5.1174    2.6259    1.2066 H   0  0
    1.2953   -0.5808    1.3574 H   0  0
   -0.1285   -1.0956    0.4208 H   0  0
    1.3081   -1.9171   -1.4019 H   0  0
    2.7594   -1.2789   -0.5922 H   0  0
    2.3463   -2.8439    1.3167 H   0  0
    0.9533   -3.5167    0.4356 H   0  0
    2.4338   -4.1700   -1.4425 H   0  0
    3.8321   -3.4516   -0.6071 H   0  0
    3.7665   -5.9141   -0.2766 H   0  0
    2.1398   -5.7766    0.4318 H   0  0
    3.5378   -5.0584    1.2669 H   0  0
  1  2  1  0  0  0
  2  3  1  0  0  0
  3  4  1  0  0  0
  4  5  1  0  0  0
  5  1  1  0  0  0
  4  6  1  0  0  0
  1  7  1  0  0  0
  5  8  1  0  0  0
  2  9  1  0  0  0
  6 10  1  0  0  0
  9 11  1  0  0  0
 11 12  1  0  0  0
 11 13  2  0  0  0
 12 14  1  0  0  0
  3 15  1  0  0  0
 15 16  1  0  0  0
 16 17  1  0  0  0
 17 18  1  0  0  0
 18 19  1  0  0  0
  1 20  1  0  0  0
  2 21  1  0  0  0
  4 22  1  0  0  0
  5 23  1  0  0  0
  6 24  1  0  0  0
  6 25  1  0  0  0
  7 26  1  0  0  0
  8 27  1  0  0  0
  9 28  1  0  0  0
  9 29  1  0  0  0
 10 30  1  0  0  0
 12 31  1  0  0  0
 14 32  1  0  0  0
 14 33  1  0  0  0
 14 34  1  0  0  0
 15 35  1  0  0  0
 15 36  1  0  0  0
 16 37  1  0  0  0
 16 38  1  0  0  0
 17 39  1  0  0  0
 17 40  1  0  0  0
 18 41  1  0  0  0
 18 42  1  0  0  0
 19 43  1  0  0  0
 19 44  1  0  0  0
 19 45  1  0  0  0
M  END
> <Ki>
1.7nM

> <Chemical Formula>
C13H26N2O4

> <Forcefield>
MMFF

> <ForcefieldBase>
MMFF

> <ForcefieldFFML>
<?xml version="1.0" encoding="UTF-8"?>
<!DOCTYPE ffml SYSTEM "Ffml.dtd">
<ffml version="1.0">
<forcefield name="C13H26N2O4-MMFF" derivedFrom="MMFF" base="MMFF">
<atomTypes>
<atomType
 name="C100"
 element="C"
 mass="12.011"
 annotation=""/>
<atomType
 name="N101"
 element="N"
 mass="14.007"
 annotation=""/>
<atomType
 name="O102"
 element="O"
 mass="16"
 annotation=""/>
<atomType
 name="H103"
 element="H"
 mass="1.008"
 annotation=""/>
</atomTypes>
<parameters>
</parameters>
</forcefield>
</ffml>

> <Reference>
Elbatrawy et al., 2020

$$$$
C8H16N2O4
  DSViewer          3D                             0

 30 30  0  0  0  0  0  0  0  0999 V2000
   -0.6205    2.7332   -0.1112 C   0  0  2  0  0  0
   -1.2118    1.3823    0.3192 C   0  0  2  0  0  0
   -0.5264    0.0502   -0.1027 C   0  0  1  0  0  0
    0.9112   -0.1188    0.5165 C   0  0  2  0  0  0
    1.9986    0.8128   -0.0717 C   0  0
    1.6963    2.1883   -0.4466 N   0  0
    0.8077    2.9788    0.3731 C   0  0
   -1.4657    3.7301    0.4658 O   0  0
   -1.3787   -0.9352    0.4779 O   0  0
   -2.5467    1.3472   -0.1900 O   0  0
    1.6234   -1.4565    0.4606 N   0  0
    1.3334   -2.6961   -0.0430 C   0  0
    2.1936   -3.5662    0.1035 O   0  0
    0.0761   -3.1054   -0.7827 C   0  0
   -0.6539    2.8140   -1.1977 H   0  0
   -1.2771    1.3860    1.4073 H   0  0
   -0.4983   -0.0481   -1.1879 H   0  0
    0.8236    0.1390    1.5720 H   0  0
    2.7952    0.8637    0.6705 H   0  0
    2.3704    0.3227   -0.9715 H   0  0
    1.2660    2.1547   -1.4257 H   0  0
    0.9016    2.6787    1.4168 H   0  0
    1.0554    4.0358    0.2748 H   0  0
   -2.4447    3.6110    0.1052 H   0  0
   -1.4069   -0.8046    1.5194 H   0  0
   -3.0971    2.1448    0.2141 H   0  0
    2.5854   -1.4236    0.9280 H   0  0
    0.1416   -4.1584   -1.0566 H   0  0
   -0.0283   -2.5018   -1.6844 H   0  0
   -0.7907   -2.9509   -0.1401 H   0  0
  1  2  1  0  0  0
  2  3  1  0  0  0
  3  4  1  0  0  0
  4  5  1  0  0  0
  5  6  1  0  0  0
  6  7  1  0  0  0
  7  1  1  0  0  0
  1  8  1  0  0  0
  3  9  1  0  0  0
  2 10  1  0  0  0
  4 11  1  0  0  0
 11 12  1  0  0  0
 12 13  2  0  0  0
 12 14  1  0  0  0
  1 15  1  0  0  0
  2 16  1  0  0  0
  3 17  1  0  0  0
  4 18  1  0  0  0
  5 19  1  0  0  0
  5 20  1  0  0  0
  6 21  1  0  0  0
  7 22  1  0  0  0
  7 23  1  0  0  0
  8 24  1  0  0  0
  9 25  1  0  0  0
 10 26  1  0  0  0
 11 27  1  0  0  0
 14 28  1  0  0  0
 14 29  1  0  0  0
 14 30  1  0  0  0
M  END
> <Ki>
11µM

> <Chemical Formula>
C8H16N2O4

> <Forcefield>
MMFF

> <ForcefieldBase>
MMFF

> <ForcefieldFFML>
<?xml version="1.0" encoding="UTF-8"?>
<!DOCTYPE ffml SYSTEM "Ffml.dtd">
<ffml version="1.0">
<forcefield name="C8H16N2O4-MMFF" derivedFrom="MMFF" base="MMFF">
<atomTypes>
<atomType
 name="C100"
 element="C"
 mass="12.011"
 annotation=""/>
<atomType
 name="N101"
 element="N"
 mass="14.007"
 annotation=""/>
<atomType
 name="O102"
 element="O"
 mass="16"
 annotation=""/>
<atomType
 name="H103"
 element="H"
 mass="1.008"
 annotation=""/>
</atomTypes>
<parameters>
</parameters>
</forcefield>
</ffml>

> <Reference>
Elbatrawy et al., 2020

$$$$
Acetamidoazepane
  DSViewer          3D                             0

 34 34  0  0  0  0  0  0  0  0999 V2000
   -1.1110    2.0925   -0.1295 C   0  0  2  0  0  0
   -1.6907    0.7644    0.3746 C   0  0  2  0  0  0
   -0.8616   -0.4820   -0.0030 C   0  0  1  0  0  0
    0.6154   -0.6819    0.5016 C   0  0  2  0  0  0
    1.5422    0.4630    0.0380 C   0  0  1  0  0  0
    1.3145    1.8171    0.7136 C   0  0
    0.0697    2.5752    0.5889 N   0  0
    2.8696    0.0901    0.4119 O   0  0
   -1.6668   -1.5533    0.4491 O   0  0
   -2.1854    3.1664    0.1172 C   0  0
   -2.9385    0.5745   -0.2771 O   0  0
   -1.7244    4.4219   -0.3848 O   0  0
    1.2800   -1.8722   -0.1347 N   0  0
    1.0111   -3.2020   -0.1482 C   0  0
    1.8054   -3.9226   -0.7773 O   0  0
   -0.1298   -3.8894    0.5490 C   0  0
   -0.8940    2.0222   -1.1954 H   0  0
   -1.8349    0.8049    1.4542 H   0  0
   -0.8389   -0.5346   -1.0915 H   0  0
    0.6366   -0.7711    1.5877 H   0  0
    1.4800    0.5743   -1.0445 H   0  0
    1.4554    1.6465    1.7809 H   0  0
    2.1025    2.4727    0.3428 H   0  0
    0.3376    3.4989    0.1199 H   0  0
    2.9189   -0.0328    1.4535 H   0  0
   -1.8149   -1.4676    1.4851 H   0  0
   -3.1052    2.8852   -0.3958 H   0  0
   -2.3766    3.2506    1.1870 H   0  0
   -3.5816    1.3704   -0.0416 H   0  0
   -0.8382    4.6927    0.1089 H   0  0
    2.1527   -1.6147   -0.6977 H   0  0
   -0.0835   -4.9606    0.3532 H   0  0
   -1.0749   -3.4932    0.1776 H   0  0
   -0.0592   -3.7133    1.6224 H   0  0
  1  2  1  0  0  0
  2  3  1  0  0  0
  3  4  1  0  0  0
  4  5  1  0  0  0
  5  6  1  0  0  0
  6  7  1  0  0  0
  7  1  1  0  0  0
  5  8  1  0  0  0
  3  9  1  0  0  0
  1 10  1  0  0  0
  2 11  1  0  0  0
 10 12  1  0  0  0
  4 13  1  0  0  0
 13 14  1  0  0  0
 14 15  2  0  0  0
 14 16  1  0  0  0
  1 17  1  0  0  0
  2 18  1  0  0  0
  3 19  1  0  0  0
  4 20  1  0  0  0
  5 21  1  0  0  0
  6 22  1  0  0  0
  6 23  1  0  0  0
  7 24  1  0  0  0
  8 25  1  0  0  0
  9 26  1  0  0  0
 10 27  1  0  0  0
 10 28  1  0  0  0
 11 29  1  0  0  0
 12 30  1  0  0  0
 13 31  1  0  0  0
 16 32  1  0  0  0
 16 33  1  0  0  0
 16 34  1  0  0  0
M  END
> <Ki>
51µM

> <Chemical Formula>
C9H18N2O5

> <Forcefield>
MMFF

> <ForcefieldBase>
MMFF

> <ForcefieldFFML>
<?xml version="1.0" encoding="UTF-8"?>
<!DOCTYPE ffml SYSTEM "Ffml.dtd">
<ffml version="1.0">
<forcefield name="Acetamidoazepane-MMFF" derivedFrom="MMFF" base="MMFF">
<atomTypes>
<atomType
 name="C100"
 element="C"
 mass="12.011"
 annotation=""/>
<atomType
 name="N101"
 element="N"
 mass="14.007"
 annotation=""/>
<atomType
 name="O102"
 element="O"
 mass="16"
 annotation=""/>
<atomType
 name="H103"
 element="H"
 mass="1.008"
 annotation=""/>
</atomTypes>
<parameters>
</parameters>
</forcefield>
</ffml>

> <Reference>
Elbatrawy et al., 2020

$$$$
C25H31N3O7S
  SciTegic07212313583D

 67 70  0  0  0  0            999 V2000
   -5.4278    2.7687   -0.2478 C   0  0  2  0  0  0
   -3.7108    3.1166    0.3497 S   0  0
   -2.4404    1.9531   -0.2821 C   0  0
   -1.0047    2.3784    0.1827 C   0  0
    0.0001    1.3585   -0.2477 N   0  0
    1.3940    1.7686    0.1105 C   0  0
    2.3838    0.5932   -0.1850 C   0  0
    3.8674    0.9796    0.1562 C   0  0
    4.8945   -0.1157    0.0638 N   0  0
    4.5808   -1.5221    0.0303 C   0  0
    5.6658   -2.4960   -0.0010 C   0  0
    7.0431   -2.0522   -0.0122 C   0  0
    7.3373   -0.7545    0.0085 C   0  0
    6.2632    0.2619    0.0374 C   0  0
    8.1028   -3.0483   -0.0322 C   0  0
    9.3798   -2.6732   -0.0377 C   0  0
    9.7162   -1.2480   -0.0191 C   0  0
    8.7451   -0.3341    0.0004 C   0  0
    5.3863   -3.8004   -0.0163 C   0  0
    6.4602   -4.8158   -0.0411 C   0  0
    7.7453   -4.4595   -0.0494 C   0  0
    6.5671    1.4594    0.0698 O   0  0
    3.4233   -1.9502    0.0628 O   0  0
   -6.3165    3.7779    0.3092 O   0  0
   -7.6807    3.6345   -0.1730 C   0  0  1  0  0  0
   -8.2511    2.2694    0.2552 C   0  0  2  0  0  0
   -7.3793    1.1825   -0.3558 C   0  0  1  0  0  0
   -5.9195    1.3420    0.1625 C   0  0  1  0  0  0
   -8.5521    4.7680    0.4115 C   0  0
   -7.9108   -0.0904    0.0055 O   0  0
   -5.0602    0.3412   -0.4711 N   0  0
   -9.5887    2.1184   -0.2257 O   0  0
   -4.8563   -0.9266   -0.0643 C   0  0
   -4.0900   -1.6343   -0.7274 O   0  0
   -5.5125   -1.5216    1.1610 C   0  0
   -9.8959    4.6585   -0.0756 O   0  0
   -5.4444    2.8472   -1.3349 H   0  0
   -2.6548    0.9530    0.0948 H   0  0
   -2.4743    1.9463   -1.3716 H   0  0
   -0.7531    3.3415   -0.2614 H   0  0
   -0.9886    2.4635    1.2693 H   0  0
   -0.0632    1.2359   -1.3088 H   0  0
    1.6785    2.6387   -0.4811 H   0  0
    1.4363    2.0195    1.1704 H   0  0
    2.0968   -0.2692    0.4166 H   0  0
    2.3206    0.3363   -1.2424 H   0  0
    4.1676    1.7711   -0.5305 H   0  0
    3.8820    1.3593    1.1778 H   0  0
   10.1710   -3.4227   -0.0558 H   0  0
   10.7600   -0.9342   -0.0214 H   0  0
    8.9962    0.7265    0.0105 H   0  0
    4.3454   -4.1238   -0.0103 H   0  0
    6.1974   -5.8736   -0.0528 H   0  0
    8.5245   -5.2214   -0.0690 H   0  0
   -7.6864    3.7012   -1.2610 H   0  0
   -8.2373    2.1873    1.3420 H   0  0
   -7.3887    1.2814   -1.4413 H   0  0
   -5.8906    1.2311    1.2464 H   0  0
   -8.5561    4.6950    1.4990 H   0  0
   -8.1381    5.7311    0.1130 H   0  0
   -7.9152   -0.1844    1.0513 H   0  0
   -4.5376    0.6496   -1.3524 H   0  0
  -10.1918    2.8813    0.1703 H   0  0
   -5.1910   -2.5563    1.2796 H   0  0
   -6.5959   -1.4893    1.0454 H   0  0
   -5.2243   -0.9488    2.0424 H   0  0
   -9.8959    4.7300   -1.1231 H   0  0
  1  2  1  0
  2  3  1  0
  3  4  1  0
  4  5  1  0
  5  6  1  0
  6  7  1  0
  7  8  1  0
  8  9  1  0
  9 10  1  0
 10 11  1  0
 11 12  1  0
 12 13  2  0
 13 14  1  0
 14  9  1  0
 12 15  1  0
 15 16  2  0
 16 17  1  0
 17 18  2  0
 18 13  1  0
 11 19  2  0
 19 20  1  0
 20 21  2  0
 21 15  1  0
 14 22  2  0
 10 23  2  0
  1 24  1  0
 24 25  1  0
 25 26  1  0
 26 27  1  0
 27 28  1  0
 28  1  1  0
 25 29  1  0
 27 30  1  0
 28 31  1  0
 26 32  1  0
 31 33  1  0
 33 34  2  0
 33 35  1  0
 29 36  1  0
  1 37  1  0
  3 38  1  0
  3 39  1  0
  4 40  1  0
  4 41  1  0
  5 42  1  0
  6 43  1  0
  6 44  1  0
  7 45  1  0
  7 46  1  0
  8 47  1  0
  8 48  1  0
 16 49  1  0
 17 50  1  0
 18 51  1  0
 19 52  1  0
 20 53  1  0
 21 54  1  0
 25 55  1  0
 26 56  1  0
 27 57  1  0
 28 58  1  0
 29 59  1  0
 29 60  1  0
 30 61  1  0
 31 62  1  0
 32 63  1  0
 35 64  1  0
 35 65  1  0
 35 66  1  0
 36 67  1  0
M  END
> <Name>
C25H31N3O7S

> <Ki>
3.8µM

> <Chemical Formula>
C25H31N3O7S

> <Forcefield>
MMFF

> <ForcefieldBase>
MMFF

> <ForcefieldFFML>
<?xml version="1.0" encoding="UTF-8"?>
<!DOCTYPE ffml SYSTEM "Ffml.dtd">
<ffml version="1.0">
<forcefield name="C25H31N3O7S-MMFF" derivedFrom="MMFF" base="MMFF">
<atomTypes>
<atomType
 name="C100"
 element="C"
 mass="12.011"
 annotation=""/>
<atomType
 name="S101"
 element="S"
 mass="32.066"
 annotation=""/>
<atomType
 name="N102"
 element="N"
 mass="14.007"
 annotation=""/>
<atomType
 name="O103"
 element="O"
 mass="16"
 annotation=""/>
<atomType
 name="H104"
 element="H"
 mass="1.008"
 annotation=""/>
</atomTypes>
<parameters>
</parameters>
</forcefield>
</ffml>

> <Reference>
Elbatrawy et al., 2020

$$$$
C30H40N4O7S
  SciTegic07212313583D

 82 86  0  0  0  0            999 V2000
   -7.0876    3.5396   -0.2467 C   0  0  2  0  0  0
   -5.3533    3.8807    0.3472 S   0  0
   -4.0633    2.7045   -0.2645 C   0  0
   -2.6090    3.1414    0.1876 C   0  0
   -1.5796    2.1160   -0.2264 N   0  0
   -0.1643    2.5447    0.1041 C   0  0
    0.8437    1.3629   -0.1814 C   0  0
    2.3661    1.7291    0.1131 C   0  0
    3.3769    0.5892    0.0312 N   0  0
    3.0097   -0.7943   -0.0016 C   0  0
    4.0366   -1.8185   -0.0197 C   0  0
    5.4543   -1.4701   -0.0032 C   0  0
    5.8156   -0.1900    0.0092 C   0  0
    4.7784    0.8994    0.0177 C   0  0
    6.4660   -2.5633    0.0020 C   0  0
    7.7973   -2.2606    0.0373 C   0  0
    8.1615   -0.8213    0.0434 C   0  0
    7.2379    0.1434    0.0315 C   0  0
    3.6520   -3.0906   -0.0343 C   0  0
    4.6178   -4.1752   -0.0421 C   0  0
    5.9237   -3.9344   -0.0215 C   0  0
    5.1423    2.0806    0.0489 O   0  0
    1.8367   -1.1756    0.0199 O   0  0
   -7.9793    4.5593    0.3025 O   0  0
   -9.3515    4.4146   -0.1782 C   0  0  1  0  0  0
   -9.9246    3.0554    0.2612 C   0  0  2  0  0  0
   -9.0569    1.9629   -0.3435 C   0  0  1  0  0  0
   -7.5898    2.1192    0.1723 C   0  0  1  0  0  0
  -10.2252    5.5524    0.3988 C   0  0
   -9.5979    0.6973    0.0264 O   0  0
   -6.7260    1.1194   -0.4570 N   0  0
  -11.2637    2.9033   -0.2176 O   0  0
   -6.5450   -0.1606   -0.0799 C   0  0
   -5.7645   -0.8543   -0.7412 O   0  0
   -7.2389   -0.7865    1.1079 C   0  0
  -11.5715    5.4362   -0.0848 O   0  0
    8.9621   -3.2251    0.0652 N   0  0
    8.8376   -4.6931    0.2693 C   0  0
   10.0113   -5.5234   -0.2764 C   0  0
   11.3228   -4.9422    0.2180 C   0  0
   11.4244   -3.5589   -0.4160 C   0  0
   10.3001   -2.6283    0.1090 C   0  0
   -7.1047    3.6096   -1.3343 H   0  0
   -4.2734    1.7118    0.1337 H   0  0
   -4.1004    2.6750   -1.3535 H   0  0
   -2.3648    4.0977   -0.2749 H   0  0
   -2.5902    3.2466    1.2724 H   0  0
   -1.6535    1.9637   -1.2830 H   0  0
    0.1046    3.4037   -0.5108 H   0  0
   -0.1080    2.8194    1.1574 H   0  0
    0.5666    0.5161    0.4465 H   0  0
    0.7550    1.0820   -1.2309 H   0  0
    2.6676    2.4891   -0.6077 H   0  0
    2.4166    2.1425    1.1204 H   0  0
    9.2154   -0.5432    0.0582 H   0  0
    7.5479    1.1884    0.0384 H   0  0
    2.5876   -3.3252   -0.0405 H   0  0
    4.2642   -5.2060   -0.0653 H   0  0
    6.6160   -4.7763   -0.0220 H   0  0
   -9.3589    4.4727   -1.2667 H   0  0
   -9.9093    2.9812    1.3486 H   0  0
   -9.0679    2.0550   -1.4296 H   0  0
   -7.5591    2.0140    1.2567 H   0  0
  -10.2267    5.4887    1.4869 H   0  0
   -9.8137    6.5137    0.0911 H   0  0
   -9.6039    0.6111    1.0729 H   0  0
   -6.1749    1.4427   -1.3153 H   0  0
  -11.8648    3.6708    0.1726 H   0  0
   -6.9280   -1.8267    1.2043 H   0  0
   -8.3184   -0.7424    0.9634 H   0  0
   -6.9715   -0.2425    2.0138 H   0  0
  -11.5740    5.4988   -1.1329 H   0  0
    8.7590   -4.8807    1.3401 H   0  0
    7.9265   -5.0279   -0.2266 H   0  0
    9.9182   -6.5529    0.0694 H   0  0
    9.9939   -5.5026   -1.3661 H   0  0
   11.3177   -4.8627    1.3051 H   0  0
   12.1584   -5.5671   -0.0972 H   0  0
   12.3927   -3.1233   -0.1697 H   0  0
   11.3329   -3.6543   -1.4980 H   0  0
   10.5256   -2.3686    1.1433 H   0  0
   10.2918   -1.7241   -0.4997 H   0  0
  1  2  1  0
  2  3  1  0
  3  4  1  0
  4  5  1  0
  5  6  1  0
  6  7  1  0
  7  8  1  0
  8  9  1  0
  9 10  1  0
 10 11  1  0
 11 12  1  0
 12 13  2  0
 13 14  1  0
 14  9  1  0
 12 15  1  0
 15 16  2  0
 16 17  1  0
 17 18  2  0
 18 13  1  0
 11 19  2  0
 19 20  1  0
 20 21  2  0
 21 15  1  0
 14 22  2  0
 10 23  2  0
  1 24  1  0
 24 25  1  0
 25 26  1  0
 26 27  1  0
 27 28  1  0
 28  1  1  0
 25 29  1  0
 27 30  1  0
 28 31  1  0
 26 32  1  0
 31 33  1  0
 33 34  2  0
 33 35  1  0
 29 36  1  0
 16 37  1  0
 37 38  1  0
 38 39  1  0
 39 40  1  0
 40 41  1  0
 41 42  1  0
 42 37  1  0
  1 43  1  0
  3 44  1  0
  3 45  1  0
  4 46  1  0
  4 47  1  0
  5 48  1  0
  6 49  1  0
  6 50  1  0
  7 51  1  0
  7 52  1  0
  8 53  1  0
  8 54  1  0
 17 55  1  0
 18 56  1  0
 19 57  1  0
 20 58  1  0
 21 59  1  0
 25 60  1  0
 26 61  1  0
 27 62  1  0
 28 63  1  0
 29 64  1  0
 29 65  1  0
 30 66  1  0
 31 67  1  0
 32 68  1  0
 35 69  1  0
 35 70  1  0
 35 71  1  0
 36 72  1  0
 38 73  1  0
 38 74  1  0
 39 75  1  0
 39 76  1  0
 40 77  1  0
 40 78  1  0
 41 79  1  0
 41 80  1  0
 42 81  1  0
 42 82  1  0
M  END
> <Name>
C30H40N4O7S

> <Ki>
0.6µM

> <Chemical Formula>
C30H40N4O7S

> <Forcefield>
MMFF

> <ForcefieldBase>
MMFF

> <ForcefieldFFML>
<?xml version="1.0" encoding="UTF-8"?>
<!DOCTYPE ffml SYSTEM "Ffml.dtd">
<ffml version="1.0">
<forcefield name="C30H40N4O7S-MMFF" derivedFrom="MMFF" base="MMFF">
<atomTypes>
<atomType
 name="C100"
 element="C"
 mass="12.011"
 annotation=""/>
<atomType
 name="S101"
 element="S"
 mass="32.066"
 annotation=""/>
<atomType
 name="N102"
 element="N"
 mass="14.007"
 annotation=""/>
<atomType
 name="O103"
 element="O"
 mass="16"
 annotation=""/>
<atomType
 name="H104"
 element="H"
 mass="1.008"
 annotation=""/>
</atomTypes>
<parameters>
</parameters>
</forcefield>
</ffml>

> <Reference>
Elbatrawy et al., 2020

$$$$
C17H23N3O5
  DSViewer          3D                             0

 48 50  0  0  0  0  0  0  0  0999 V2000
   -0.3754    2.7098    0.4657 C   0  0  1  0  0  0
    0.4070    1.4747    0.1018 N   0  0
   -0.0410    0.1846    0.3356 C   0  0
    0.9890   -0.5692   -0.0154 C   0  0
    2.0241    0.2448   -0.4472 N   0  0
    1.6592    1.4074   -0.3782 N   0  0
    1.0195   -2.0655    0.0548 C   0  0
    2.4634   -2.5621   -0.1644 C   0  0
    2.5145   -4.0688   -0.1008 C   0  0
    1.3904   -4.7813   -0.0288 C   0  0
    1.4500   -6.2445    0.0319 C   0  0
    2.6292   -6.8638    0.0186 C   0  0
    3.8658   -6.0820   -0.0578 C   0  0
    3.8115   -4.7520   -0.1163 C   0  0
    0.2467    4.1373    0.0023 C   0  0  1  0  0  0
   -0.6580    5.1869    0.4137 O   0  0
   -1.9561    5.0884   -0.1768 C   0  0  1  0  0  0
   -2.6354    3.7907    0.2634 C   0  0  2  0  0  0
   -1.7964    2.5992   -0.1839 C   0  0  2  0  0  0
    1.5209    4.5534    0.6141 O   0  0
    2.6999    3.9023    0.1701 C   0  0
   -2.7939    6.2992    0.2925 C   0  0
   -2.4871    1.4200    0.2410 O   0  0
   -3.9337    3.6942   -0.3245 O   0  0
   -4.1005    6.2598   -0.2830 O   0  0
   -0.4974    2.7279    1.5487 H   0  0
   -1.0109   -0.1339    0.7176 H   0  0
    0.6686   -2.3902    1.0343 H   0  0
    0.3722   -2.4784   -0.7189 H   0  0
    2.8127   -2.2316   -1.1426 H   0  0
    3.1076   -2.1477    0.6111 H   0  0
    0.4252   -4.2750   -0.0151 H   0  0
    0.5296   -6.8257    0.0879 H   0  0
    2.6740   -7.9519    0.0647 H   0  0
    4.8309   -6.5887   -0.0669 H   0  0
    4.7321   -4.1714   -0.1756 H   0  0
    0.3461    4.1520   -1.0831 H   0  0
   -1.8663    5.1044   -1.2629 H   0  0
   -2.7282    3.7810    1.3494 H   0  0
   -1.7053    2.6007   -1.2701 H   0  0
    3.5610    4.3058    0.7028 H   0  0
    2.8255    4.0671   -0.9001 H   0  0
    2.6207    2.8329    0.3658 H   0  0
   -2.8802    6.2756    1.3788 H   0  0
   -2.2957    7.2194   -0.0130 H   0  0
   -2.5891    1.4309    1.2860 H   0  0
   -4.5187    4.5107   -0.0184 H   0  0
   -4.0233    6.2852   -1.3298 H   0  0
  1  2  1  0  0  0
  2  3  1  0  0  0
  3  4  2  0  0  0
  4  5  1  0  0  0
  5  6  2  0  0  0
  6  2  1  0  0  0
  4  7  1  0  0  0
  7  8  1  0  0  0
  8  9  1  0  0  0
  9 10  2  0  0  0
 10 11  1  0  0  0
 11 12  2  0  0  0
 12 13  1  0  0  0
 13 14  2  0  0  0
 14  9  1  0  0  0
  1 15  1  0  0  0
 15 16  1  0  0  0
 16 17  1  0  0  0
 17 18  1  0  0  0
 18 19  1  0  0  0
 19  1  1  0  0  0
 15 20  1  0  0  0
 20 21  1  0  0  0
 17 22  1  0  0  0
 19 23  1  0  0  0
 18 24  1  0  0  0
 22 25  1  0  0  0
  1 26  1  0  0  0
  3 27  1  0  0  0
  7 28  1  0  0  0
  7 29  1  0  0  0
  8 30  1  0  0  0
  8 31  1  0  0  0
 10 32  1  0  0  0
 11 33  1  0  0  0
 12 34  1  0  0  0
 13 35  1  0  0  0
 14 36  1  0  0  0
 15 37  1  0  0  0
 17 38  1  0  0  0
 18 39  1  0  0  0
 19 40  1  0  0  0
 21 41  1  0  0  0
 21 42  1  0  0  0
 21 43  1  0  0  0
 22 44  1  0  0  0
 22 45  1  0  0  0
 23 46  1  0  0  0
 24 47  1  0  0  0
 25 48  1  0  0  0
M  END
> <IC50>
0.5µM

> <Chemical Formula>
C17H23N3O5

> <Forcefield>
MMFF

> <ForcefieldBase>
MMFF

> <ForcefieldFFML>
<?xml version="1.0" encoding="UTF-8"?>
<!DOCTYPE ffml SYSTEM "Ffml.dtd">
<ffml version="1.0">
<forcefield name="C17H23N3O5-MMFF" derivedFrom="MMFF" base="MMFF">
<atomTypes>
<atomType
 name="C100"
 element="C"
 mass="12.011"
 annotation=""/>
<atomType
 name="N101"
 element="N"
 mass="14.007"
 annotation=""/>
<atomType
 name="O102"
 element="O"
 mass="16"
 annotation=""/>
<atomType
 name="H103"
 element="H"
 mass="1.008"
 annotation=""/>
</atomTypes>
<parameters>
</parameters>
</forcefield>
</ffml>

> <Reference>
Elbatrawy et al., 2020

$$$$
C16H22N4O5
  DSViewer          3D                             0

 47 49  0  0  0  0  0  0  0  0999 V2000
   -0.3602    2.7004    0.4616 C   0  0  1  0  0  0
    0.4168    1.4547    0.1006 N   0  0
   -0.0986    0.1727    0.1736 C   0  0
    0.9352   -0.6016   -0.0600 C   0  0
    2.0602    0.1816   -0.2704 N   0  0
    1.7289    1.3550   -0.1746 N   0  0
    0.8957   -2.1010   -0.0783 C   0  0
    2.2227   -2.6413   -0.1579 N   0  0
    2.4116   -4.0282   -0.1007 C   0  0
    1.3566   -4.8433   -0.0397 C   0  0
    1.5506   -6.2931    0.0239 C   0  0
    2.7819   -6.8002    0.0245 C   0  0
    3.9423   -5.9064   -0.0401 C   0  0
    3.7657   -4.5873   -0.1008 C   0  0
    0.2602    4.1258   -0.0149 C   0  0  1  0  0  0
   -0.6358    5.1801    0.4030 O   0  0
   -1.9397    5.0849   -0.1765 C   0  0  1  0  0  0
   -2.6210    3.7947    0.2754 C   0  0  2  0  0  0
   -1.7961    2.5953   -0.1686 C   0  0  2  0  0  0
    1.5438    4.5426    0.5727 O   0  0
    2.7136    3.9099    0.0810 C   0  0
   -2.7696    6.3011    0.2916 C   0  0
   -2.5000    1.4302    0.2728 O   0  0
   -3.9246    3.7002   -0.3012 O   0  0
   -4.0805    6.2625   -0.2752 O   0  0
   -0.4696    2.7265    1.5458 H   0  0
   -1.1268   -0.1257    0.3782 H   0  0
    0.4183   -2.4576    0.8344 H   0  0
    0.3215   -2.4334   -0.9431 H   0  0
    3.0639   -1.9880   -0.2604 H   0  0
    0.3485   -4.4288   -0.0374 H   0  0
    0.6874   -6.9570    0.0708 H   0  0
    2.9270   -7.8794    0.0730 H   0  0
    4.9502   -6.3215   -0.0384 H   0  0
    4.6290   -3.9238   -0.1506 H   0  0
    0.3432    4.1355   -1.1017 H   0  0
   -1.8583    5.0941   -1.2634 H   0  0
   -2.7057    3.7925    1.3621 H   0  0
   -1.7189    2.5864   -1.2558 H   0  0
    3.5871    4.3081    0.5972 H   0  0
    2.8070    4.0984   -0.9885 H   0  0
    2.6473    2.8360    0.2558 H   0  0
   -2.8486    6.2839    1.3786 H   0  0
   -2.2704    7.2177   -0.0225 H   0  0
   -2.5948    1.4531    1.3183 H   0  0
   -4.5036    4.5209    0.0050 H   0  0
   -4.0102    6.2816   -1.3227 H   0  0
  1  2  1  0  0  0
  2  3  1  0  0  0
  3  4  2  0  0  0
  4  5  1  0  0  0
  5  6  2  0  0  0
  6  2  1  0  0  0
  4  7  1  0  0  0
  7  8  1  0  0  0
  8  9  1  0  0  0
  9 10  2  0  0  0
 10 11  1  0  0  0
 11 12  2  0  0  0
 12 13  1  0  0  0
 13 14  2  0  0  0
 14  9  1  0  0  0
  1 15  1  0  0  0
 15 16  1  0  0  0
 16 17  1  0  0  0
 17 18  1  0  0  0
 18 19  1  0  0  0
 19  1  1  0  0  0
 15 20  1  0  0  0
 20 21  1  0  0  0
 17 22  1  0  0  0
 19 23  1  0  0  0
 18 24  1  0  0  0
 22 25  1  0  0  0
  1 26  1  0  0  0
  3 27  1  0  0  0
  7 28  1  0  0  0
  7 29  1  0  0  0
  8 30  1  0  0  0
 10 31  1  0  0  0
 11 32  1  0  0  0
 12 33  1  0  0  0
 13 34  1  0  0  0
 14 35  1  0  0  0
 15 36  1  0  0  0
 17 37  1  0  0  0
 18 38  1  0  0  0
 19 39  1  0  0  0
 21 40  1  0  0  0
 21 41  1  0  0  0
 21 42  1  0  0  0
 22 43  1  0  0  0
 22 44  1  0  0  0
 23 45  1  0  0  0
 24 46  1  0  0  0
 25 47  1  0  0  0
M  END
> <IC50>
0.52µM

> <Chemical Formula>
C16H22N4O5

> <Forcefield>
MMFF

> <ForcefieldBase>
MMFF

> <ForcefieldFFML>
<?xml version="1.0" encoding="UTF-8"?>
<!DOCTYPE ffml SYSTEM "Ffml.dtd">
<ffml version="1.0">
<forcefield name="C16H22N4O5-MMFF" derivedFrom="MMFF" base="MMFF">
<atomTypes>
<atomType
 name="C100"
 element="C"
 mass="12.011"
 annotation=""/>
<atomType
 name="N101"
 element="N"
 mass="14.007"
 annotation=""/>
<atomType
 name="O102"
 element="O"
 mass="16"
 annotation=""/>
<atomType
 name="H103"
 element="H"
 mass="1.008"
 annotation=""/>
</atomTypes>
<parameters>
</parameters>
</forcefield>
</ffml>

> <Reference>
Elbatrawy et al., 2020

$$$$
C16H21N3O6
  DSViewer          3D                             0

 46 48  0  0  0  0  0  0  0  0999 V2000
   -0.3613    2.6803    0.4627 C   0  0  1  0  0  0
    0.4169    1.4464    0.0988 N   0  0
   -0.0266    0.1511    0.3131 C   0  0
    0.9912   -0.5931   -0.0308 C   0  0
    2.0418    0.2158   -0.4491 N   0  0
    1.6742    1.3810   -0.3719 N   0  0
    1.0285   -2.0941    0.0225 C   0  0
    2.3788   -2.5550   -0.1169 O   0  0
    2.4499   -3.9587   -0.0793 C   0  0
    1.3422   -4.7001    0.0303 C   0  0
    1.4362   -6.1617    0.0704 C   0  0
    2.6262   -6.7552    0.0036 C   0  0
    3.8417   -5.9458   -0.1130 C   0  0
    3.7565   -4.6176   -0.1550 C   0  0
    0.2591    4.1081    0.0073 C   0  0  1  0  0  0
   -0.6450    5.1567    0.4178 O   0  0
   -1.9422    5.0599   -0.1748 C   0  0  1  0  0  0
   -2.6226    3.7622    0.2602 C   0  0  2  0  0  0
   -1.7848    2.5700   -0.1852 C   0  0  2  0  0  0
    1.5331    4.5226    0.6223 O   0  0
    2.7139    3.8731    0.1814 C   0  0
   -2.7801    6.2704    0.2936 C   0  0
   -2.4760    1.3914    0.2344 O   0  0
   -3.9202    3.6667   -0.3289 O   0  0
   -4.0853    6.2325   -0.2851 O   0  0
   -0.4835    2.6952    1.5457 H   0  0
   -0.9996   -0.1724    0.6831 H   0  0
    0.6287   -2.4316    0.9787 H   0  0
    0.4232   -2.4994   -0.7884 H   0  0
    0.3674   -4.2160    0.0900 H   0  0
    0.5314   -6.7636    0.1549 H   0  0
    2.6960   -7.8425    0.0357 H   0  0
    4.8164   -6.4310   -0.1654 H   0  0
    4.6623   -4.0181   -0.2462 H   0  0
    0.3612    4.1259   -1.0777 H   0  0
   -1.8499    5.0777   -1.2607 H   0  0
   -2.7176    3.7510    1.3460 H   0  0
   -1.6933    2.5729   -1.2713 H   0  0
    3.5729    4.2766    0.7173 H   0  0
    2.8428    4.0393   -0.8882 H   0  0
    2.6349    2.8034    0.3755 H   0  0
   -2.8690    6.2456    1.3796 H   0  0
   -2.2805    7.1905   -0.0096 H   0  0
   -2.5815    1.4002    1.2791 H   0  0
   -4.5057    4.4822   -0.0213 H   0  0
   -4.0055    6.2590   -1.3318 H   0  0
  1  2  1  0  0  0
  2  3  1  0  0  0
  3  4  2  0  0  0
  4  5  1  0  0  0
  5  6  2  0  0  0
  6  2  1  0  0  0
  4  7  1  0  0  0
  7  8  1  0  0  0
  8  9  1  0  0  0
  9 10  2  0  0  0
 10 11  1  0  0  0
 11 12  2  0  0  0
 12 13  1  0  0  0
 13 14  2  0  0  0
 14  9  1  0  0  0
  1 15  1  0  0  0
 15 16  1  0  0  0
 16 17  1  0  0  0
 17 18  1  0  0  0
 18 19  1  0  0  0
 19  1  1  0  0  0
 15 20  1  0  0  0
 20 21  1  0  0  0
 17 22  1  0  0  0
 19 23  1  0  0  0
 18 24  1  0  0  0
 22 25  1  0  0  0
  1 26  1  0  0  0
  3 27  1  0  0  0
  7 28  1  0  0  0
  7 29  1  0  0  0
 10 30  1  0  0  0
 11 31  1  0  0  0
 12 32  1  0  0  0
 13 33  1  0  0  0
 14 34  1  0  0  0
 15 35  1  0  0  0
 17 36  1  0  0  0
 18 37  1  0  0  0
 19 38  1  0  0  0
 21 39  1  0  0  0
 21 40  1  0  0  0
 21 41  1  0  0  0
 22 42  1  0  0  0
 22 43  1  0  0  0
 23 44  1  0  0  0
 24 45  1  0  0  0
 25 46  1  0  0  0
M  END
> <IC50>
0.72µM

> <Chemical Formula>
C16H21N3O6

> <Forcefield>
MMFF

> <ForcefieldBase>
MMFF

> <ForcefieldFFML>
<?xml version="1.0" encoding="UTF-8"?>
<!DOCTYPE ffml SYSTEM "Ffml.dtd">
<ffml version="1.0">
<forcefield name="C16H21N3O6-MMFF" derivedFrom="MMFF" base="MMFF">
<atomTypes>
<atomType
 name="C100"
 element="C"
 mass="12.011"
 annotation=""/>
<atomType
 name="N101"
 element="N"
 mass="14.007"
 annotation=""/>
<atomType
 name="O102"
 element="O"
 mass="16"
 annotation=""/>
<atomType
 name="H103"
 element="H"
 mass="1.008"
 annotation=""/>
</atomTypes>
<parameters>
</parameters>
</forcefield>
</ffml>

> <Reference>
Elbatrawy et al., 2020

$$$$
C17H21N3OS
  DSViewer          3D                             0

 43 45  0  0  0  0  0  0  0  0999 V2000
   -7.0712   -0.5621    0.2005 C   0  0
   -7.1095   -1.8883    0.0875 C   0  0
   -5.8609   -2.6524    0.0040 C   0  0
   -4.6874   -2.0214    0.0387 C   0  0
   -4.6445   -0.5613    0.1625 C   0  0
   -5.7820    0.1308    0.2393 C   0  0
   -3.3219    0.1663    0.1861 C   0  0
   -2.2909   -0.5428   -0.7270 C   0  0
   -1.0737    0.3951   -0.9840 C   0  0
   -0.9462    1.3527    0.1287 N   0  0
   -2.1042    2.3131    0.0740 C   0  0
   -3.4663    1.6191   -0.1923 C   0  0
    0.2709    2.2173    0.0092 C   0  0
    1.6409    1.5406    0.0838 C   0  0
    1.9257    0.2537    0.3405 C   0  0
    3.3877    0.0001    0.3169 N   0  0
    4.0819    1.0470    0.0657 C   0  0
    3.0637    2.3433   -0.1440 S   0  0
    5.5050    1.1563   -0.0314 N   0  0
    6.3819    0.1367    0.0258 C   0  0
    7.5906    0.3967   -0.0696 O   0  0
    5.9666   -1.3013    0.1844 C   0  0
   -7.9986    0.0071    0.2640 H   0  0
   -8.0685   -2.4055    0.0571 H   0  0
   -5.8925   -3.7382   -0.0866 H   0  0
   -3.7601   -2.5908   -0.0249 H   0  0
   -5.7518    1.2164    0.3313 H   0  0
   -2.9413    0.1270    1.2067 H   0  0
   -1.9467   -1.4560   -0.2415 H   0  0
   -2.7619   -0.7916   -1.6780 H   0  0
   -0.1644   -0.2017   -1.0553 H   0  0
   -1.2256    0.9396   -1.9159 H   0  0
   -2.1640    2.8372    1.0278 H   0  0
   -1.9202    3.0314   -0.7250 H   0  0
   -4.2445    2.0846    0.4124 H   0  0
   -3.7260    1.7038   -1.2476 H   0  0
    0.2131    2.7276   -0.9522 H   0  0
    0.2275    2.9513    0.8139 H   0  0
    1.1753   -0.5109    0.5416 H   0  0
    5.9094    2.1384   -0.1613 H   0  0
    6.8526   -1.9359    0.2039 H   0  0
    5.3312   -1.5910   -0.6525 H   0  0
    5.4149   -1.4199    1.1170 H   0  0
  1  2  2  0  0  0
  2  3  1  0  0  0
  3  4  2  0  0  0
  4  5  1  0  0  0
  5  6  2  0  0  0
  6  1  1  0  0  0
  5  7  1  0  0  0
  7  8  1  0  0  0
  8  9  1  0  0  0
  9 10  1  0  0  0
 10 11  1  0  0  0
 11 12  1  0  0  0
 12  7  1  0  0  0
 10 13  1  0  0  0
 13 14  1  0  0  0
 14 15  2  0  0  0
 15 16  1  0  0  0
 16 17  2  0  0  0
 17 18  1  0  0  0
 18 14  1  0  0  0
 17 19  1  0  0  0
 19 20  1  0  0  0
 20 21  2  0  0  0
 20 22  1  0  0  0
  1 23  1  0  0  0
  2 24  1  0  0  0
  3 25  1  0  0  0
  4 26  1  0  0  0
  6 27  1  0  0  0
  7 28  1  0  0  0
  8 29  1  0  0  0
  8 30  1  0  0  0
  9 31  1  0  0  0
  9 32  1  0  0  0
 11 33  1  0  0  0
 11 34  1  0  0  0
 12 35  1  0  0  0
 12 36  1  0  0  0
 13 37  1  0  0  0
 13 38  1  0  0  0
 15 39  1  0  0  0
 19 40  1  0  0  0
 22 41  1  0  0  0
 22 42  1  0  0  0
 22 43  1  0  0  0
M  END
> <IC50>
0.2µM

> <Chemical Formula>
C17H21N3OS

> <Forcefield>
MMFF

> <ForcefieldBase>
MMFF

> <ForcefieldFFML>
<?xml version="1.0" encoding="UTF-8"?>
<!DOCTYPE ffml SYSTEM "Ffml.dtd">
<ffml version="1.0">
<forcefield name="C17H21N3OS-MMFF" derivedFrom="MMFF" base="MMFF">
<atomTypes>
<atomType
 name="C100"
 element="C"
 mass="12.011"
 annotation=""/>
<atomType
 name="N101"
 element="N"
 mass="14.007"
 annotation=""/>
<atomType
 name="S102"
 element="S"
 mass="32.066"
 annotation=""/>
<atomType
 name="O103"
 element="O"
 mass="16"
 annotation=""/>
<atomType
 name="H104"
 element="H"
 mass="1.008"
 annotation=""/>
</atomTypes>
<parameters>
</parameters>
</forcefield>
</ffml>

> <Reference>
Elbatrawy et al., 2020

$$$$
C18H23N3OS
  DSViewer          3D                             0

 46 48  0  0  0  0  0  0  0  0999 V2000
   -7.0345   -0.0482    0.3627 C   0  0
   -7.0730   -1.3779    0.3080 C   0  0
   -5.8574   -2.1334   -0.0067 C   0  0
   -4.7142   -1.4910   -0.2414 C   0  0
   -4.6712   -0.0261   -0.1802 C   0  0
   -5.7787    0.6582    0.1085 C   0  0
   -3.3881    0.7145   -0.4512 C   0  0
   -2.1536   -0.1855   -0.3468 C   0  0
   -0.9179    0.6619   -0.7292 C   0  0
   -0.7712    1.8267    0.2019 N   0  0
   -1.9693    2.7000    0.0803 C   0  0
   -3.2565    1.9427    0.4554 C   0  0
    0.4083    2.6785   -0.1546 C   0  0
    1.7972    2.0472   -0.0050 C   0  0
    2.1104    0.8169    0.4311 C   0  0
    3.5702    0.5807    0.4269 N   0  0
    4.2472    1.5946    0.0179 C   0  0
    3.2051    2.8320   -0.3627 S   0  0
    5.6656    1.6977   -0.1036 N   0  0
    6.5491    0.6908    0.0331 C   0  0
    7.7530    0.9420   -0.0920 O   0  0
    6.1360   -0.7332    0.3094 C   0  0
   -5.9023   -3.6321   -0.0621 C   0  0
   -7.9384    0.5141    0.5968 H   0  0
   -8.0085   -1.9045    0.4972 H   0  0
   -3.8113   -2.0536   -0.4787 H   0  0
   -5.7483    1.7468    0.1552 H   0  0
   -3.4364    1.0764   -1.4782 H   0  0
   -2.0489   -0.5544    0.6735 H   0  0
   -2.2507   -1.0288   -1.0305 H   0  0
   -0.0245    0.0404   -0.6692 H   0  0
   -1.0371    1.0303   -1.7481 H   0  0
   -1.8540    3.5550    0.7465 H   0  0
   -2.0506    3.0493   -0.9490 H   0  0
   -3.2044    1.6254    1.4969 H   0  0
   -4.1188    2.5947    0.3164 H   0  0
    0.2942    2.9774   -1.1966 H   0  0
    0.3793    3.5623    0.4827 H   0  0
    1.3750    0.0786    0.7508 H   0  0
    6.0642    2.6659   -0.3240 H   0  0
    7.0232   -1.3626    0.3781 H   0  0
    5.4992   -1.0908   -0.4998 H   0  0
    5.5866   -0.7767    1.2498 H   0  0
   -4.9127   -4.0169   -0.3082 H   0  0
   -6.6140   -3.9468   -0.8254 H   0  0
   -6.2129   -4.0229    0.9069 H   0  0
  1  2  2  0  0  0
  2  3  1  0  0  0
  3  4  2  0  0  0
  4  5  1  0  0  0
  5  6  2  0  0  0
  6  1  1  0  0  0
  5  7  1  0  0  0
  7  8  1  0  0  0
  8  9  1  0  0  0
  9 10  1  0  0  0
 10 11  1  0  0  0
 11 12  1  0  0  0
 12  7  1  0  0  0
 10 13  1  0  0  0
 13 14  1  0  0  0
 14 15  2  0  0  0
 15 16  1  0  0  0
 16 17  2  0  0  0
 17 18  1  0  0  0
 18 14  1  0  0  0
 17 19  1  0  0  0
 19 20  1  0  0  0
 20 21  2  0  0  0
 20 22  1  0  0  0
  3 23  1  0  0  0
  1 24  1  0  0  0
  2 25  1  0  0  0
  4 26  1  0  0  0
  6 27  1  0  0  0
  7 28  1  0  0  0
  8 29  1  0  0  0
  8 30  1  0  0  0
  9 31  1  0  0  0
  9 32  1  0  0  0
 11 33  1  0  0  0
 11 34  1  0  0  0
 12 35  1  0  0  0
 12 36  1  0  0  0
 13 37  1  0  0  0
 13 38  1  0  0  0
 15 39  1  0  0  0
 19 40  1  0  0  0
 22 41  1  0  0  0
 22 42  1  0  0  0
 22 43  1  0  0  0
 23 44  1  0  0  0
 23 45  1  0  0  0
 23 46  1  0  0  0
M  END
> <IC50>
0.2µM

> <Chemical Formula>
C18H23N3OS

> <Forcefield>
MMFF

> <ForcefieldBase>
MMFF

> <ForcefieldFFML>
<?xml version="1.0" encoding="UTF-8"?>
<!DOCTYPE ffml SYSTEM "Ffml.dtd">
<ffml version="1.0">
<forcefield name="C18H23N3OS-MMFF" derivedFrom="MMFF" base="MMFF">
<atomTypes>
<atomType
 name="C100"
 element="C"
 mass="12.011"
 annotation=""/>
<atomType
 name="N101"
 element="N"
 mass="14.007"
 annotation=""/>
<atomType
 name="S102"
 element="S"
 mass="32.066"
 annotation=""/>
<atomType
 name="O103"
 element="O"
 mass="16"
 annotation=""/>
<atomType
 name="H104"
 element="H"
 mass="1.008"
 annotation=""/>
</atomTypes>
<parameters>
</parameters>
</forcefield>
</ffml>

> <Reference>
Elbatrawy et al., 2020

$$$$
C22H30Cl2N10
  DSViewer          3D                             0

 64 65  0  0  0  0  0  0  0  0999 V2000
  -13.3574   -0.2512   -0.0000 C   0  0
  -13.5366   -1.5707    0.0001 C   0  0
  -12.3741   -2.4603    0.0003 C   0  0
  -11.1400   -1.9532    0.0003 C   0  0
  -10.9244   -0.4915    0.0002 C   0  0
  -11.9939    0.3122    0.0000 C   0  0
  -15.1377   -2.2336    0.0001 Cl  0  0
   -9.5971    0.1036    0.0001 N   0  0
   -8.3485   -0.6324    0.0004 C   0  0
   -7.0881    0.0831    0.0002 N   0  0
   -5.8147   -0.6075    0.0004 C   0  0
   -4.5626    0.1179    0.0001 N   0  0
   -3.2681   -0.6133    0.0002 C   0  0
   -2.0049    0.3511   -0.0000 C   0  0
   -0.6398   -0.4728    0.0001 C   0  0
    0.6397    0.4730   -0.0002 C   0  0
    2.0048   -0.3509   -0.0001 C   0  0
    3.2680    0.6135   -0.0003 C   0  0
    4.5625   -0.1177   -0.0002 N   0  0
    5.8146    0.6077   -0.0002 C   0  0
    7.0880   -0.0829   -0.0002 N   0  0
    8.3483    0.6326   -0.0002 C   0  0
    9.5970   -0.1035   -0.0003 N   0  0
   10.9242    0.4917   -0.0002 C   0  0
   11.9938   -0.3120   -0.0003 C   0  0
   13.3573    0.2514   -0.0002 C   0  0
   13.5365    1.5709    0.0000 C   0  0
   12.3739    2.4606    0.0002 C   0  0
   11.1399    1.9534    0.0001 C   0  0
   15.1376    2.2338    0.0001 Cl  0  0
   -8.3435   -1.9009    0.0008 N   0  0
   -5.7874   -1.8764    0.0008 N   0  0
    8.3434    1.9010   -0.0001 N   0  0
    5.7872    1.8765   -0.0003 N   0  0
  -14.2205    0.4145   -0.0001 H   0  0
  -12.5172   -3.5409    0.0004 H   0  0
  -10.2814   -2.6247    0.0004 H   0  0
  -11.8566    1.3935   -0.0001 H   0  0
   -9.5377    1.1720   -0.0001 H   0  0
   -7.0985    1.1530   -0.0001 H   0  0
   -4.5684    1.1879   -0.0002 H   0  0
   -3.2248   -1.2407    0.8905 H   0  0
   -3.2248   -1.2411   -0.8898 H   0  0
   -2.0392    0.9790   -0.8903 H   0  0
   -2.0391    0.9794    0.8900 H   0  0
   -0.6104   -1.1010    0.8903 H   0  0
   -0.6105   -1.1014   -0.8899 H   0  0
    0.6103    1.1012   -0.8904 H   0  0
    0.6104    1.1015    0.8899 H   0  0
    2.0391   -0.9789    0.8902 H   0  0
    2.0390   -0.9792   -0.8901 H   0  0
    3.2247    1.2410   -0.8905 H   0  0
    3.2248    1.2413    0.8898 H   0  0
    4.5683   -1.1877   -0.0001 H   0  0
    7.0984   -1.1529   -0.0003 H   0  0
    9.5376   -1.1718   -0.0004 H   0  0
   11.8565   -1.3933   -0.0005 H   0  0
   14.2204   -0.4143   -0.0003 H   0  0
   12.5170    3.5411    0.0004 H   0  0
   10.2813    2.6249    0.0002 H   0  0
   -7.4148   -2.4323    0.0010 H   0  0
   -4.8494   -2.3913    0.0010 H   0  0
    9.2679    2.4397   -0.0001 H   0  0
    6.7021    2.4314   -0.0003 H   0  0
  1  2  2  0  0  0
  2  3  1  0  0  0
  3  4  2  0  0  0
  4  5  1  0  0  0
  5  6  2  0  0  0
  6  1  1  0  0  0
  2  7  1  0  0  0
  5  8  1  0  0  0
  8  9  1  0  0  0
  9 10  1  0  0  0
 10 11  1  0  0  0
 11 12  1  0  0  0
 12 13  1  0  0  0
 13 14  1  0  0  0
 14 15  1  0  0  0
 15 16  1  0  0  0
 16 17  1  0  0  0
 17 18  1  0  0  0
 18 19  1  0  0  0
 19 20  1  0  0  0
 20 21  1  0  0  0
 21 22  1  0  0  0
 22 23  1  0  0  0
 23 24  1  0  0  0
 24 25  2  0  0  0
 25 26  1  0  0  0
 26 27  2  0  0  0
 27 28  1  0  0  0
 28 29  2  0  0  0
 29 24  1  0  0  0
 27 30  1  0  0  0
  9 31  2  0  0  0
 11 32  2  0  0  0
 22 33  2  0  0  0
 20 34  2  0  0  0
  1 35  1  0  0  0
  3 36  1  0  0  0
  4 37  1  0  0  0
  6 38  1  0  0  0
  8 39  1  0  0  0
 10 40  1  0  0  0
 12 41  1  0  0  0
 13 42  1  0  0  0
 13 43  1  0  0  0
 14 44  1  0  0  0
 14 45  1  0  0  0
 15 46  1  0  0  0
 15 47  1  0  0  0
 16 48  1  0  0  0
 16 49  1  0  0  0
 17 50  1  0  0  0
 17 51  1  0  0  0
 18 52  1  0  0  0
 18 53  1  0  0  0
 19 54  1  0  0  0
 21 55  1  0  0  0
 23 56  1  0  0  0
 25 57  1  0  0  0
 26 58  1  0  0  0
 28 59  1  0  0  0
 29 60  1  0  0  0
 31 61  1  0  0  0
 32 62  1  0  0  0
 33 63  1  0  0  0
 34 64  1  0  0  0
M  END
> <Chemical Formula>
C22H30Cl2N10

> <Forcefield>
MMFF

> <ForcefieldBase>
MMFF

> <ForcefieldFFML>
<?xml version="1.0" encoding="UTF-8"?>
<!DOCTYPE ffml SYSTEM "Ffml.dtd">
<ffml version="1.0">
<forcefield name="C22H30Cl2N10-MMFF" derivedFrom="MMFF" base="MMFF">
<atomTypes>
<atomType
 name="C100"
 element="C"
 mass="12.011"
 annotation=""/>
<atomType
 name="Cl101"
 element="Cl"
 mass="35.453"
 annotation=""/>
<atomType
 name="N102"
 element="N"
 mass="14.007"
 annotation=""/>
<atomType
 name="H103"
 element="H"
 mass="1.008"
 annotation=""/>
</atomTypes>
<parameters>
</parameters>
</forcefield>
</ffml>

> <Reference>
Elbatrawy et al., 2020

$$$$
C23H27N5
  DSViewer          3D                             0

 55 59  0  0  0  0  0  0  0  0999 V2000
   13.6142  -22.7304    0.0160 N   0  0
   13.6066  -24.0015   -0.0660 C   0  0
   14.8625  -24.7449   -0.1321 C   0  0
   16.0190  -24.0881   -0.1032 C   0  0
   15.9979  -22.6325   -0.0073 C   0  0
   14.8221  -22.0021    0.0464 C   0  0
   14.7792  -20.5050    0.1398 C   0  0
   12.3001  -24.7416   -0.0915 C   0  0
   17.2300  -24.8115   -0.1600 N   0  0
   17.2505  -26.2212   -0.2835 C   0  0
   18.6348  -26.7170    0.2955 C   0  0  1  0  0  0
   19.2812  -25.5052   -0.4757 C   0  0
   18.4955  -24.2547   -0.0420 C   0  0
   18.4085  -28.2413    0.0104 C   0  0
   19.6105  -29.0511    0.4545 C   0  0
   20.6539  -28.1165    0.3450 N   0  0
   20.0167  -27.0546   -0.4659 C   0  0
   21.8509  -28.8272   -0.2061 C   0  0
   23.1988  -28.1252   -0.1232 C   0  0
   24.2908  -28.8769   -0.2693 C   0  0
   25.6223  -28.2920   -0.1582 C   0  0
   25.7563  -26.9906    0.0856 C   0  0
   24.5605  -26.1491    0.2459 C   0  0
   23.3427  -26.6882    0.1520 C   0  0
   26.7572  -29.1025   -0.2979 N   0  0
   27.9195  -28.5986   -0.1886 C   0  0
   28.0692  -27.1657    0.0768 C   0  0
   27.0367  -26.4317    0.2010 N   0  0
   14.8520  -25.8324   -0.2047 H   0  0
   16.9295  -22.0672    0.0201 H   0  0
   13.7418  -20.1722    0.1733 H   0  0
   15.2712  -20.0719   -0.7311 H   0  0
   15.2933  -20.1821    1.0451 H   0  0
   12.4900  -25.8124   -0.1640 H   0  0
   11.7153  -24.4177   -0.9525 H   0  0
   11.7456  -24.5325    0.8233 H   0  0
   16.4294  -26.6584    0.2847 H   0  0
   17.1599  -26.5062   -1.3317 H   0  0
   20.3326  -25.4033   -0.2066 H   0  0
   19.1938  -25.6521   -1.5522 H   0  0
   18.7249  -23.9498    0.9791 H   0  0
   18.6461  -23.4114   -0.7160 H   0  0
   17.5272  -28.5805    0.5549 H   0  0
   18.2539  -28.3867   -1.0587 H   0  0
   19.4962  -29.3972    1.4817 H   0  0
   19.7752  -29.9060   -0.2013 H   0  0
   20.6548  -26.1720   -0.5099 H   0  0
   19.8193  -27.4116   -1.4767 H   0  0
   21.9434  -29.7710    0.3313 H   0  0
   21.6533  -29.0261   -1.2594 H   0  0
   24.1869  -29.9424   -0.4744 H   0  0
   24.6689  -25.0824    0.4419 H   0  0
   22.4577  -26.0647    0.2789 H   0  0
   28.8015  -29.2307   -0.2921 H   0  0
   29.0636  -26.7286    0.1678 H   0  0
  1  2  2  0  0  0
  2  3  1  0  0  0
  3  4  2  0  0  0
  4  5  1  0  0  0
  5  6  2  0  0  0
  6  1  1  0  0  0
  6  7  1  0  0  0
  2  8  1  0  0  0
  4  9  1  0  0  0
  9 10  1  0  0  0
 10 11  1  0  0  0
 11 12  1  0  0  0
 12 13  1  0  0  0
 13  9  1  0  0  0
 11 14  1  0  0  0
 14 15  1  0  0  0
 15 16  1  0  0  0
 16 17  1  0  0  0
 11 17  1  0  0  0
 16 18  1  0  0  0
 18 19  1  0  0  0
 19 20  2  0  0  0
 20 21  1  0  0  0
 21 22  2  0  0  0
 22 23  1  0  0  0
 23 24  2  0  0  0
 24 19  1  0  0  0
 21 25  1  0  0  0
 25 26  2  0  0  0
 26 27  1  0  0  0
 27 28  2  0  0  0
 28 22  1  0  0  0
  3 29  1  0  0  0
  5 30  1  0  0  0
  7 31  1  0  0  0
  7 32  1  0  0  0
  7 33  1  0  0  0
  8 34  1  0  0  0
  8 35  1  0  0  0
  8 36  1  0  0  0
 10 37  1  0  0  0
 10 38  1  0  0  0
 12 39  1  0  0  0
 12 40  1  0  0  0
 13 41  1  0  0  0
 13 42  1  0  0  0
 14 43  1  0  0  0
 14 44  1  0  0  0
 15 45  1  0  0  0
 15 46  1  0  0  0
 17 47  1  0  0  0
 17 48  1  0  0  0
 18 49  1  0  0  0
 18 50  1  0  0  0
 20 51  1  0  0  0
 23 52  1  0  0  0
 24 53  1  0  0  0
 26 54  1  0  0  0
 27 55  1  0  0  0
M  END
> <Clean Energy>
127.181

> <IC50>
6.65pM

> <Chemical Formula>
C23H27N5

> <Forcefield>
MMFF

> <ForcefieldBase>
MMFF

> <ForcefieldFFML>
<?xml version="1.0" encoding="UTF-8"?>
<!DOCTYPE ffml SYSTEM "Ffml.dtd">
<ffml version="1.0">
<forcefield name="C23H27N5-MMFF" derivedFrom="MMFF" base="MMFF">
<atomTypes>
<atomType
 name="N100"
 element="N"
 mass="14.007"
 annotation=""/>
<atomType
 name="C101"
 element="C"
 mass="12.011"
 annotation=""/>
<atomType
 name="H102"
 element="H"
 mass="1.008"
 annotation=""/>
</atomTypes>
<parameters>
</parameters>
</forcefield>
</ffml>

> <Reference>
Elbatrawy et al., 2020

$$$$
C24H31N5
  DSViewer          3D                             0

 60 64  0  0  0  0  0  0  0  0999 V2000
   13.4458  -22.6256    0.0097 N   0  0
   13.3851  -23.8907   -0.0835 C   0  0
   14.6043  -24.6615   -0.1098 C   0  0
   15.7680  -24.0256   -0.0303 C   0  0
   15.7847  -22.6291    0.0726 N   0  0
   14.6915  -21.9684    0.0886 C   0  0
   14.7269  -20.4724    0.1926 C   0  0
   12.0572  -24.5848   -0.1616 C   0  0
   16.9484  -24.7741   -0.0513 N   0  0
   16.9342  -26.1774   -0.2235 C   0  0
   18.2978  -26.7374    0.3374 C   0  0  1  0  0  0
   18.9591  -25.4996   -0.3735 C   0  0
   18.2131  -24.2546    0.1119 C   0  0
   18.0667  -28.2343   -0.0586 C   0  0
   19.2804  -29.0707    0.3091 C   0  0
   20.3218  -28.1060    0.3589 N   0  0
   19.6962  -27.0052   -0.3870 C   0  0
   21.5936  -28.7183   -0.1991 C   0  0  1  0  0  0
   22.9796  -27.9880   -0.1449 C   0  0
   21.8238  -30.1313    0.3922 C   0  0
   24.1122  -28.7091   -0.1905 C   0  0
   25.2085  -27.7577   -0.0962 C   0  0
   24.7356  -26.5418    0.0005 C   0  0
   23.3614  -26.5857   -0.0206 N   0  0
   26.6291  -28.0338   -0.0938 C   0  0
   27.4586  -26.9897    0.0121 C   0  0
   26.9158  -25.5978    0.1209 C   0  0
   25.5955  -25.3839    0.1149 C   0  0
   22.5528  -25.4229    0.1023 C   0  0
   14.5712  -25.7478   -0.1936 H   0  0
   13.7087  -20.0834    0.1919 H   0  0
   15.2728  -20.0615   -0.6567 H   0  0
   15.2249  -20.1837    1.1182 H   0  0
   12.2130  -25.6610   -0.2366 H   0  0
   11.5148  -24.2348   -1.0400 H   0  0
   11.4777  -24.3637    0.7347 H   0  0
   16.0993  -26.6113    0.3268 H   0  0
   16.8387  -26.4215   -1.2815 H   0  0
   20.0134  -25.4327   -0.1048 H   0  0
   18.8647  -25.5946   -1.4552 H   0  0
   18.4363  -24.0076    1.1498 H   0  0
   18.3947  -23.3829   -0.5168 H   0  0
   17.1937  -28.6155    0.4711 H   0  0
   17.8975  -28.2997   -1.1334 H   0  0
   19.1459  -29.5538    1.2769 H   0  0
   19.4811  -29.8266   -0.4501 H   0  0
   20.3225  -26.1140   -0.3468 H   0  0
   19.5376  -27.2918   -1.4266 H   0  0
   21.3945  -28.8790   -1.2586 H   0  0
   22.7402  -30.5533   -0.0200 H   0  0
   20.9813  -30.7742    0.1369 H   0  0
   21.9119  -30.0620    1.4765 H   0  0
   24.1936  -29.7924   -0.2804 H   0  0
   27.0083  -29.0525   -0.1749 H   0  0
   28.5363  -27.1528    0.0191 H   0  0
   27.6010  -24.7543    0.2055 H   0  0
   25.1839  -24.3776    0.1931 H   0  0
   21.5009  -25.7049    0.0579 H   0  0
   22.7787  -24.7348   -0.7124 H   0  0
   22.7580  -24.9361    1.0558 H   0  0
  1  2  2  0  0  0
  2  3  1  0  0  0
  3  4  2  0  0  0
  4  5  1  0  0  0
  5  6  2  0  0  0
  6  1  1  0  0  0
  6  7  1  0  0  0
  2  8  1  0  0  0
  4  9  1  0  0  0
  9 10  1  0  0  0
 10 11  1  0  0  0
 11 12  1  0  0  0
 12 13  1  0  0  0
 13  9  1  0  0  0
 11 14  1  0  0  0
 14 15  1  0  0  0
 15 16  1  0  0  0
 16 17  1  0  0  0
 17 11  1  0  0  0
 16 18  1  0  0  0
 18 19  1  0  0  0
 18 20  1  0  0  0
 19 21  2  0  0  0
 21 22  1  0  0  0
 22 23  2  0  0  0
 23 24  1  0  0  0
 24 19  1  0  0  0
 22 25  1  0  0  0
 25 26  2  0  0  0
 26 27  1  0  0  0
 27 28  2  0  0  0
 28 23  1  0  0  0
 24 29  1  0  0  0
  3 30  1  0  0  0
  7 31  1  0  0  0
  7 32  1  0  0  0
  7 33  1  0  0  0
  8 34  1  0  0  0
  8 35  1  0  0  0
  8 36  1  0  0  0
 10 37  1  0  0  0
 10 38  1  0  0  0
 12 39  1  0  0  0
 12 40  1  0  0  0
 13 41  1  0  0  0
 13 42  1  0  0  0
 14 43  1  0  0  0
 14 44  1  0  0  0
 15 45  1  0  0  0
 15 46  1  0  0  0
 17 47  1  0  0  0
 17 48  1  0  0  0
 18 49  1  0  0  0
 20 50  1  0  0  0
 20 51  1  0  0  0
 20 52  1  0  0  0
 21 53  1  0  0  0
 25 54  1  0  0  0
 26 55  1  0  0  0
 27 56  1  0  0  0
 28 57  1  0  0  0
 29 58  1  0  0  0
 29 59  1  0  0  0
 29 60  1  0  0  0
M  END
> <Clean Energy>
159.22

> <IC50>
5.58pM

> <Chemical Formula>
C24H31N5

> <Forcefield>
MMFF

> <ForcefieldBase>
MMFF

> <ForcefieldFFML>
<?xml version="1.0" encoding="UTF-8"?>
<!DOCTYPE ffml SYSTEM "Ffml.dtd">
<ffml version="1.0">
<forcefield name="C24H31N5-MMFF" derivedFrom="MMFF" base="MMFF">
<atomTypes>
<atomType
 name="N100"
 element="N"
 mass="14.007"
 annotation=""/>
<atomType
 name="C101"
 element="C"
 mass="12.011"
 annotation=""/>
<atomType
 name="H102"
 element="H"
 mass="1.008"
 annotation=""/>
</atomTypes>
<parameters>
</parameters>
</forcefield>
</ffml>

> <Reference>
Elbatrawy et al., 2020

$$$$
C24H31N3O2
  DSViewer          3D                             0

 60 64  0  0  0  0  0  0  0  0999 V2000
   13.4399  -22.4794    0.0032 N   0  0
   13.4294  -23.7487   -0.0927 C   0  0
   14.6804  -24.4976   -0.1132 C   0  0
   15.8393  -23.8468   -0.0248 C   0  0
   15.8227  -22.3945    0.0855 C   0  0
   14.6501  -21.7577    0.0934 C   0  0
   14.6109  -20.2619    0.1992 C   0  0
   12.1220  -24.4830   -0.1802 C   0  0
   17.0396  -24.5796   -0.0392 N   0  0
   17.0523  -25.9758   -0.2209 C   0  0
   18.4065  -26.5367    0.3759 C   0  0  1  0  0  0
   19.0749  -25.2858   -0.3190 C   0  0
   18.2972  -24.0453    0.1470 C   0  0
   18.1391  -28.0076   -0.0865 C   0  0
   19.2940  -28.9052    0.3163 C   0  0
   20.3796  -27.9991    0.3908 N   0  0
   19.8258  -26.8207   -0.3068 C   0  0
   21.6091  -28.6545   -0.1964 C   0  0  1  0  0  0
   22.9563  -27.9067   -0.1564 C   0  0
   24.0640  -28.6462   -0.2377 C   0  0
   25.3840  -28.0368   -0.1815 C   0  0
   25.5061  -26.7198   -0.0613 C   0  0
   24.2928  -25.8734   -0.0249 C   0  0
   23.0838  -26.4415   -0.0542 C   0  0
   21.8340  -30.0651    0.4011 C   0  0
   26.7914  -26.1772    0.0860 O   0  0
   26.7593  -24.7976    0.4970 C   0  0
   25.7282  -24.0095   -0.2823 C   0  0
   24.3849  -24.4739   -0.0181 O   0  0
   14.6673  -25.5841   -0.2004 H   0  0
   16.7555  -21.8355    0.1606 H   0  0
   13.5749  -19.9236    0.1901 H   0  0
   15.1433  -19.8234   -0.6448 H   0  0
   15.0861  -19.9504    1.1294 H   0  0
   12.3106  -25.5538   -0.2562 H   0  0
   11.5745  -24.1475   -1.0610 H   0  0
   11.5309  -24.2813    0.7132 H   0  0
   16.2058  -26.4237    0.2995 H   0  0
   16.9918  -26.2105   -1.2836 H   0  0
   20.1203  -25.2061   -0.0209 H   0  0
   19.0120  -25.3818   -1.4030 H   0  0
   18.4960  -23.7914    1.1882 H   0  0
   18.4807  -23.1738   -0.4815 H   0  0
   17.2229  -28.3699    0.3799 H   0  0
   18.0286  -28.0290   -1.1706 H   0  0
   19.1079  -29.3759    1.2816 H   0  0
   19.4747  -29.6742   -0.4347 H   0  0
   20.4852  -25.9617   -0.1826 H   0  0
   19.7004  -27.0326   -1.3686 H   0  0
   21.3871  -28.8108   -1.2520 H   0  0
   23.9783  -29.7272   -0.3482 H   0  0
   26.2747  -28.6625   -0.2383 H   0  0
   22.1897  -25.8201   -0.0025 H   0  0
   22.7255  -30.5097   -0.0413 H   0  0
   20.9700  -30.6936    0.1854 H   0  0
   21.9653  -29.9864    1.4803 H   0  0
   26.5135  -24.7500    1.5578 H   0  0
   27.7419  -24.3559    0.3310 H   0  0
   25.8001  -22.9591   -0.0001 H   0  0
   25.9347  -24.1151   -1.3473 H   0  0
  1  2  2  0  0  0
  2  3  1  0  0  0
  3  4  2  0  0  0
  4  5  1  0  0  0
  5  6  2  0  0  0
  6  1  1  0  0  0
  6  7  1  0  0  0
  2  8  1  0  0  0
  4  9  1  0  0  0
  9 10  1  0  0  0
 10 11  1  0  0  0
 11 12  1  0  0  0
 12 13  1  0  0  0
 13  9  1  0  0  0
 11 14  1  0  0  0
 14 15  1  0  0  0
 15 16  1  0  0  0
 16 17  1  0  0  0
 17 11  1  0  0  0
 16 18  1  0  0  0
 18 19  1  0  0  0
 19 20  2  0  0  0
 20 21  1  0  0  0
 21 22  2  0  0  0
 22 23  1  0  0  0
 23 24  2  0  0  0
 24 19  1  0  0  0
 18 25  1  0  0  0
 22 26  1  0  0  0
 26 27  1  0  0  0
 27 28  1  0  0  0
 28 29  1  0  0  0
 29 23  1  0  0  0
  3 30  1  0  0  0
  5 31  1  0  0  0
  7 32  1  0  0  0
  7 33  1  0  0  0
  7 34  1  0  0  0
  8 35  1  0  0  0
  8 36  1  0  0  0
  8 37  1  0  0  0
 10 38  1  0  0  0
 10 39  1  0  0  0
 12 40  1  0  0  0
 12 41  1  0  0  0
 13 42  1  0  0  0
 13 43  1  0  0  0
 14 44  1  0  0  0
 14 45  1  0  0  0
 15 46  1  0  0  0
 15 47  1  0  0  0
 17 48  1  0  0  0
 17 49  1  0  0  0
 18 50  1  0  0  0
 20 51  1  0  0  0
 21 52  1  0  0  0
 24 53  1  0  0  0
 25 54  1  0  0  0
 25 55  1  0  0  0
 25 56  1  0  0  0
 27 57  1  0  0  0
 27 58  1  0  0  0
 28 59  1  0  0  0
 28 60  1  0  0  0
M  END
> <Clean Energy>
137.981

> <IC50>
6.74pM

> <Chemical Formula>
C24H31N3O2

> <Forcefield>
MMFF

> <ForcefieldBase>
MMFF

> <ForcefieldFFML>
<?xml version="1.0" encoding="UTF-8"?>
<!DOCTYPE ffml SYSTEM "Ffml.dtd">
<ffml version="1.0">
<forcefield name="C24H31N3O2-MMFF" derivedFrom="MMFF" base="MMFF">
<atomTypes>
<atomType
 name="N100"
 element="N"
 mass="14.007"
 annotation=""/>
<atomType
 name="C101"
 element="C"
 mass="12.011"
 annotation=""/>
<atomType
 name="O102"
 element="O"
 mass="16"
 annotation=""/>
<atomType
 name="H103"
 element="H"
 mass="1.008"
 annotation=""/>
</atomTypes>
<parameters>
</parameters>
</forcefield>
</ffml>

> <Reference>
Elbatrawy et al., 2020

$$$$
C24H33N3O6S
  DSViewer          3D                             0

 67 69  0  0  0  0  0  0  0  0999 V2000
   24.8854  -27.2972   -0.2499 C   0  0  1  0  0  0
   24.4402  -28.6363    0.4079 C   0  0  2  0  0  0
   25.6827  -29.5031    0.2340 N   0  0
   26.7906  -28.5586   -0.2314 C   0  0  1  0  0  0
   26.2636  -27.2077    0.3256 C   0  0  1  0  0  0
   28.2348  -28.8268    0.2728 C   0  0
   24.9886  -27.4148   -1.6715 O   0  0
   27.0184  -26.0859   -0.1321 O   0  0
   23.0820  -29.1457   -0.1692 C   0  0
   29.1098  -27.8050   -0.2012 O   0  0
   21.9560  -28.1419    0.1286 C   0  0
   20.7160  -28.3598   -0.3021 N   0  0
   22.1762  -27.1237    0.7956 O   0  0
   19.6900  -27.3947    0.0114 C   0  0
   18.3002  -27.9685   -0.3179 C   0  0
   25.5554  -31.0052   -0.0885 C   0  0
   26.9072  -31.7926    0.0831 C   0  0
   26.8173  -33.3279   -0.1273 C   0  0
   28.5250  -33.9984   -0.0173 S   0  0
   28.5426  -35.7154   -0.1376 N   0  0
   29.7605  -36.4542   -0.1042 C   0  0
   29.7236  -37.7865   -0.1387 C   0  0
   30.9691  -38.5681   -0.1059 C   0  0
   32.1486  -37.9485   -0.0432 C   0  0
   32.1954  -36.4801   -0.0047 C   0  0
   31.0643  -35.7699   -0.0322 C   0  0
   33.3941  -38.7400   -0.0150 C   0  0
   33.3409  -40.0709   -0.0407 C   0  0
   34.5781  -40.8602   -0.0147 C   0  0
   35.7590  -40.2455    0.0331 C   0  0
   35.8206  -38.7813    0.0607 C   0  0
   34.6967  -38.0639    0.0385 C   0  0
   29.3577  -33.4053   -1.1385 O   0  0
   29.1304  -33.5950    1.3137 O   0  0
   24.2564  -26.4594    0.0511 H   0  0
   24.3042  -28.4563    1.4743 H   0  0
   26.7934  -28.5197   -1.3207 H   0  0
   26.2277  -27.2286    1.4148 H   0  0
   28.2422  -28.8324    1.3628 H   0  0
   28.5737  -29.7940   -0.0983 H   0  0
   25.6967  -28.1520   -1.9117 H   0  0
   28.0182  -26.1885    0.1720 H   0  0
   23.1753  -29.2691   -1.2482 H   0  0
   22.8364  -30.1048    0.2869 H   0  0
   29.1047  -27.7984   -1.2512 H   0  0
   20.4837  -29.2356   -0.8713 H   0  0
   19.7367  -27.1522    1.0731 H   0  0
   19.8545  -26.4913   -0.5758 H   0  0
   17.5353  -27.2304   -0.0766 H   0  0
   18.1309  -28.8714    0.2689 H   0  0
   18.2487  -28.2106   -1.3794 H   0  0
   24.8133  -31.4414    0.5802 H   0  0
   25.2218  -31.1107   -1.1208 H   0  0
   27.6208  -31.3960   -0.6391 H   0  0
   27.2744  -31.6131    1.0936 H   0  0
   26.1916  -33.7738    0.6459 H   0  0
   26.3942  -33.5454   -1.1080 H   0  0
   27.6161  -36.2408   -0.2400 H   0  0
   28.7636  -38.3001   -0.1914 H   0  0
   30.9281  -39.6570   -0.1330 H   0  0
   33.1566  -35.9686    0.0464 H   0  0
   31.1055  -34.6811   -0.0013 H   0  0
   32.3754  -40.5753   -0.0811 H   0  0
   34.5306  -41.9489   -0.0346 H   0  0
   36.6783  -40.8308    0.0517 H   0  0
   36.7867  -38.2780    0.0995 H   0  0
   34.7449  -36.9752    0.0601 H   0  0
  1  2  1  0  0  0
  2  3  1  0  0  0
  3  4  1  0  0  0
  4  5  1  0  0  0
  5  1  1  0  0  0
  4  6  1  0  0  0
  1  7  1  0  0  0
  5  8  1  0  0  0
  2  9  1  0  0  0
  6 10  1  0  0  0
  9 11  1  0  0  0
 11 12  1  0  0  0
 11 13  2  0  0  0
 12 14  1  0  0  0
 14 15  1  0  0  0
  3 16  1  0  0  0
 16 17  1  0  0  0
 17 18  1  0  0  0
 18 19  1  0  0  0
 19 20  1  0  0  0
 20 21  1  0  0  0
 21 22  2  0  0  0
 22 23  1  0  0  0
 23 24  2  0  0  0
 24 25  1  0  0  0
 25 26  2  0  0  0
 26 21  1  0  0  0
 24 27  1  0  0  0
 27 28  2  0  0  0
 28 29  1  0  0  0
 29 30  2  0  0  0
 30 31  1  0  0  0
 31 32  2  0  0  0
 32 27  1  0  0  0
 19 33  2  0  0  0
 19 34  2  0  0  0
  1 35  1  0  0  0
  2 36  1  0  0  0
  4 37  1  0  0  0
  5 38  1  0  0  0
  6 39  1  0  0  0
  6 40  1  0  0  0
  7 41  1  0  0  0
  8 42  1  0  0  0
  9 43  1  0  0  0
  9 44  1  0  0  0
 10 45  1  0  0  0
 12 46  1  0  0  0
 14 47  1  0  0  0
 14 48  1  0  0  0
 15 49  1  0  0  0
 15 50  1  0  0  0
 15 51  1  0  0  0
 16 52  1  0  0  0
 16 53  1  0  0  0
 17 54  1  0  0  0
 17 55  1  0  0  0
 18 56  1  0  0  0
 18 57  1  0  0  0
 20 58  1  0  0  0
 22 59  1  0  0  0
 23 60  1  0  0  0
 25 61  1  0  0  0
 26 62  1  0  0  0
 28 63  1  0  0  0
 29 64  1  0  0  0
 30 65  1  0  0  0
 31 66  1  0  0  0
 32 67  1  0  0  0
M  END
> <Clean Energy>
54.1775

> <IC50>
2.0nM

> <Chemical Formula>
C24H33N3O6S

> <Forcefield>
MMFF

> <ForcefieldBase>
MMFF

> <ForcefieldFFML>
<?xml version="1.0" encoding="UTF-8"?>
<!DOCTYPE ffml SYSTEM "Ffml.dtd">
<ffml version="1.0">
<forcefield name="C24H33N3O6S-MMFF" derivedFrom="MMFF" base="MMFF">
<atomTypes>
<atomType
 name="C100"
 element="C"
 mass="12.011"
 annotation=""/>
<atomType
 name="N101"
 element="N"
 mass="14.007"
 annotation=""/>
<atomType
 name="O102"
 element="O"
 mass="16"
 annotation=""/>
<atomType
 name="S103"
 element="S"
 mass="32.066"
 annotation=""/>
<atomType
 name="H104"
 element="H"
 mass="1.008"
 annotation=""/>
</atomTypes>
<parameters>
</parameters>
</forcefield>
</ffml>

> <Reference>
Elbatrawy et al., 2020

$$$$
C9H18N2O4
  DSViewer          3D                             0

 33 33  0  0  0  0  0  0  0  0999 V2000
   22.7552  -23.8253    0.2618 C   0  0  1  0  0  0
   21.3916  -23.8159   -0.3646 C   0  0  1  0  0  0
   20.9268  -25.1585    0.2782 C   0  0  2  0  0  0
   22.0545  -26.0210   -0.0773 N   0  0
   23.2498  -25.1898   -0.2902 C   0  0  2  0  0  0
   19.5630  -25.6558   -0.2221 C   0  0
   23.6226  -22.7404   -0.0730 O   0  0
   24.5428  -25.6577    0.4008 C   0  0
   20.5662  -22.7063   -0.0053 O   0  0
   22.1136  -27.4751    0.1208 C   0  0
   25.5910  -24.7236    0.1389 O   0  0
   18.5460  -24.7133    0.1311 N   0  0
   17.2668  -25.0343   -0.0334 C   0  0
   16.1933  -24.0526    0.3339 C   0  0
   16.9620  -26.1440   -0.4844 O   0  0
   22.6554  -23.8878    1.3454 H   0  0
   21.4630  -23.9101   -1.4482 H   0  0
   20.8911  -25.0437    1.3615 H   0  0
   23.4321  -25.0959   -1.3607 H   0  0
   19.5933  -25.7664   -1.3061 H   0  0
   19.3386  -26.6191    0.2358 H   0  0
   23.7857  -22.7293   -1.1103 H   0  0
   24.3760  -25.7235    1.4760 H   0  0
   24.8257  -26.6374    0.0158 H   0  0
   20.4179  -22.7018    1.0342 H   0  0
   23.0719  -27.8523   -0.2360 H   0  0
   21.3063  -27.9513   -0.4357 H   0  0
   22.0065  -27.7024    1.1815 H   0  0
   25.7527  -24.6595   -0.8966 H   0  0
   18.8138  -23.7555    0.5256 H   0  0
   15.2157  -24.4896    0.1307 H   0  0
   16.3141  -23.1438   -0.2557 H   0  0
   16.2691  -23.8103    1.3940 H   0  0
  1  2  1  0  0  0
  2  3  1  0  0  0
  3  4  1  0  0  0
  4  5  1  0  0  0
  5  1  1  0  0  0
  3  6  1  0  0  0
  1  7  1  0  0  0
  5  8  1  0  0  0
  2  9  1  0  0  0
  4 10  1  0  0  0
  8 11  1  0  0  0
  6 12  1  0  0  0
 12 13  1  0  0  0
 13 14  1  0  0  0
 13 15  2  0  0  0
  1 16  1  0  0  0
  2 17  1  0  0  0
  3 18  1  0  0  0
  5 19  1  0  0  0
  6 20  1  0  0  0
  6 21  1  0  0  0
  7 22  1  0  0  0
  8 23  1  0  0  0
  8 24  1  0  0  0
  9 25  1  0  0  0
 10 26  1  0  0  0
 10 27  1  0  0  0
 10 28  1  0  0  0
 11 29  1  0  0  0
 12 30  1  0  0  0
 14 31  1  0  0  0
 14 32  1  0  0  0
 14 33  1  0  0  0
M  END
> <Clean Energy>
47.6109

> <Chemical Formula>
C9H18N2O4

> <Forcefield>
MMFF

> <ForcefieldBase>
MMFF

> <ForcefieldFFML>
<?xml version="1.0" encoding="UTF-8"?>
<!DOCTYPE ffml SYSTEM "Ffml.dtd">
<ffml version="1.0">
<forcefield name="C9H18N2O4-MMFF" derivedFrom="MMFF" base="MMFF">
<atomTypes>
<atomType
 name="C100"
 element="C"
 mass="12.011"
 annotation=""/>
<atomType
 name="N101"
 element="N"
 mass="14.007"
 annotation=""/>
<atomType
 name="O102"
 element="O"
 mass="16"
 annotation=""/>
<atomType
 name="H103"
 element="H"
 mass="1.008"
 annotation=""/>
</atomTypes>
<parameters>
</parameters>
</forcefield>
</ffml>

> <Reference>
Bergeron-Brlek et al., 2015

$$$$
C9H18N2O4
  DSViewer          3D                             0

 33 33  0  0  0  0  0  0  0  0999 V2000
   22.8532  -23.8129    0.2384 C   0  0  1  0  0  0
   21.3187  -23.6789    0.0942 C   0  0  1  0  0  0
   20.9768  -25.1977    0.1138 C   0  0  1  0  0  0
   22.0883  -25.8407    0.7394 N   0  0
   23.1517  -25.1785   -0.2043 C   0  0  2  0  0  0
   19.5378  -25.5329    0.5357 C   0  0
   23.5935  -22.6867   -0.2358 O   0  0
   24.5971  -25.5985    0.1144 C   0  0
   20.9657  -22.8394    1.1938 O   0  0
   22.0262  -27.2978    0.5592 C   0  0
   25.5045  -24.8198   -0.6659 O   0  0
   18.6038  -24.8548   -0.3094 N   0  0
   17.3019  -25.0763   -0.1473 C   0  0
   16.3054  -24.3724   -1.0214 C   0  0
   16.9144  -25.8624    0.7222 O   0  0
   23.0294  -23.8264    1.3140 H   0  0
   21.0471  -23.2225   -0.8577 H   0  0
   21.0347  -25.5050   -0.9304 H   0  0
   22.9086  -25.3263   -1.2565 H   0  0
   19.3806  -26.6085    0.4553 H   0  0
   19.3830  -25.2187    1.5679 H   0  0
   23.3947  -22.5412   -1.2565 H   0  0
   24.7970  -25.4356    1.1734 H   0  0
   24.7286  -26.6543   -0.1225 H   0  0
   21.2477  -23.3025    2.0930 H   0  0
   22.8844  -27.7614    1.0455 H   0  0
   22.0409  -27.5338   -0.5048 H   0  0
   21.1072  -27.6805    1.0032 H   0  0
   25.3128  -24.9762   -1.6864 H   0  0
   18.9481  -24.1775   -1.0628 H   0  0
   15.2970  -24.6781   -0.7426 H   0  0
   16.4882  -24.6325   -2.0640 H   0  0
   16.4063  -23.2946   -0.8931 H   0  0
  1  2  1  0  0  0
  2  3  1  0  0  0
  3  4  1  0  0  0
  4  5  1  0  0  0
  5  1  1  0  0  0
  3  6  1  0  0  0
  1  7  1  0  0  0
  5  8  1  0  0  0
  2  9  1  0  0  0
  4 10  1  0  0  0
  8 11  1  0  0  0
  6 12  1  0  0  0
 12 13  1  0  0  0
 13 14  1  0  0  0
 13 15  2  0  0  0
  1 16  1  0  0  0
  2 17  1  0  0  0
  3 18  1  0  0  0
  5 19  1  0  0  0
  6 20  1  0  0  0
  6 21  1  0  0  0
  7 22  1  0  0  0
  8 23  1  0  0  0
  8 24  1  0  0  0
  9 25  1  0  0  0
 10 26  1  0  0  0
 10 27  1  0  0  0
 10 28  1  0  0  0
 11 29  1  0  0  0
 12 30  1  0  0  0
 14 31  1  0  0  0
 14 32  1  0  0  0
 14 33  1  0  0  0
M  END
> <Clean Energy>
70.0013

> <Chemical Formula>
C9H18N2O4

> <Forcefield>
MMFF

> <ForcefieldBase>
MMFF

> <ForcefieldFFML>
<?xml version="1.0" encoding="UTF-8"?>
<!DOCTYPE ffml SYSTEM "Ffml.dtd">
<ffml version="1.0">
<forcefield name="C9H18N2O4-MMFF" derivedFrom="MMFF" base="MMFF">
<atomTypes>
<atomType
 name="C100"
 element="C"
 mass="12.011"
 annotation=""/>
<atomType
 name="N101"
 element="N"
 mass="14.007"
 annotation=""/>
<atomType
 name="O102"
 element="O"
 mass="16"
 annotation=""/>
<atomType
 name="H103"
 element="H"
 mass="1.008"
 annotation=""/>
</atomTypes>
<parameters>
</parameters>
</forcefield>
</ffml>

> <Reference>
Bergeron-Brlek et al., 2015

$$$$
C8H16N2O4
  DSViewer          3D                             0

 30 30  0  0  0  0  0  0  0  0999 V2000
   22.6766  -23.6254    0.3223 C   0  0  1  0  0  0
   21.3279  -23.6468   -0.3448 C   0  0  1  0  0  0
   20.8660  -24.9528    0.3043 C   0  0  2  0  0  0
   21.9993  -25.9025    0.0729 N   0  0
   23.1373  -24.9772   -0.2239 C   0  0  2  0  0  0
   19.5073  -25.4794   -0.1802 C   0  0
   23.5273  -22.5438   -0.0627 O   0  0
   24.4934  -25.4626    0.3148 C   0  0
   20.4833  -22.5356   -0.0389 O   0  0
   25.5092  -24.5154   -0.0189 O   0  0
   18.4883  -24.5114    0.0913 N   0  0
   17.2103  -24.8372   -0.0640 C   0  0
   16.1366  -23.8289    0.2185 C   0  0
   16.9049  -25.9774   -0.4376 O   0  0
   22.5704  -23.6643    1.4064 H   0  0
   21.4322  -23.7673   -1.4231 H   0  0
   20.7913  -24.7811    1.3781 H   0  0
   21.7996  -26.5488   -0.7562 H   0  0
   23.2211  -24.8883   -1.3071 H   0  0
   19.5530  -25.6655   -1.2532 H   0  0
   19.2724  -26.4078    0.3404 H   0  0
   23.7057  -22.5890   -1.0965 H   0  0
   24.4367  -25.5668    1.3983 H   0  0
   24.7364  -26.4271   -0.1312 H   0  0
   20.3056  -22.5048    0.9956 H   0  0
   25.5649  -24.4143   -1.0625 H   0  0
   18.7556  -23.5283    0.4184 H   0  0
   15.1598  -24.2767    0.0358 H   0  0
   16.2676  -22.9654   -0.4337 H   0  0
   16.2009  -23.5109    1.2591 H   0  0
  1  2  1  0  0  0
  2  3  1  0  0  0
  3  4  1  0  0  0
  4  5  1  0  0  0
  5  1  1  0  0  0
  3  6  1  0  0  0
  1  7  1  0  0  0
  5  8  1  0  0  0
  2  9  1  0  0  0
  8 10  1  0  0  0
  6 11  1  0  0  0
 11 12  1  0  0  0
 12 13  1  0  0  0
 12 14  2  0  0  0
  1 15  1  0  0  0
  2 16  1  0  0  0
  3 17  1  0  0  0
  4 18  1  0  0  0
  5 19  1  0  0  0
  6 20  1  0  0  0
  6 21  1  0  0  0
  7 22  1  0  0  0
  8 23  1  0  0  0
  8 24  1  0  0  0
  9 25  1  0  0  0
 10 26  1  0  0  0
 11 27  1  0  0  0
 13 28  1  0  0  0
 13 29  1  0  0  0
 13 30  1  0  0  0
M  END
> <Clean Energy>
29.8555

> <Chemical Formula>
C8H16N2O4

> <Forcefield>
MMFF

> <ForcefieldBase>
MMFF

> <ForcefieldFFML>
<?xml version="1.0" encoding="UTF-8"?>
<!DOCTYPE ffml SYSTEM "Ffml.dtd">
<ffml version="1.0">
<forcefield name="C8H16N2O4-MMFF" derivedFrom="MMFF" base="MMFF">
<atomTypes>
<atomType
 name="C100"
 element="C"
 mass="12.011"
 annotation=""/>
<atomType
 name="N101"
 element="N"
 mass="14.007"
 annotation=""/>
<atomType
 name="O102"
 element="O"
 mass="16"
 annotation=""/>
<atomType
 name="H103"
 element="H"
 mass="1.008"
 annotation=""/>
</atomTypes>
<parameters>
</parameters>
</forcefield>
</ffml>

> <Reference>
Bergeron-Brlek et al., 2015

$$$$
C13H26N2O4
  DSViewer          3D                             0

 45 45  0  0  0  0  0  0  0  0999 V2000
   23.3115  -24.4409    0.5614 C   0  0  1  0  0  0
   22.8935  -25.6818   -0.1242 C   0  0  1  0  0  0
   24.0474  -26.5531    0.5055 N   0  0
   25.1225  -25.7631   -0.1206 C   0  0  1  0  0  0
   24.8030  -24.2860    0.2278 C   0  0  1  0  0  0
   26.6390  -26.0833   -0.0030 C   0  0
   22.5743  -23.2204    0.4507 O   0  0
   25.2016  -23.5811   -0.9490 O   0  0
   21.4778  -26.1626    0.2955 C   0  0
   27.3903  -25.1922   -0.8256 O   0  0
   20.3941  -25.2367   -0.2176 C   0  0
   19.1294  -25.4457    0.1513 N   0  0
   20.6641  -24.3052   -0.9736 O   0  0
   18.0938  -24.5764   -0.3309 C   0  0
   23.9654  -27.9691    0.0118 C   0  0
   25.0289  -28.9033    0.6442 C   0  0
   24.9902  -30.2807   -0.0336 C   0  0
   26.1182  -31.1534    0.5471 C   0  0
   26.1359  -32.5170   -0.1656 C   0  0
   23.2869  -24.6867    1.6230 H   0  0
   22.9906  -25.6004   -1.2068 H   0  0
   24.9176  -25.8347   -1.1888 H   0  0
   25.3696  -23.9541    1.0977 H   0  0
   26.9529  -25.9682    1.0344 H   0  0
   26.8173  -27.1092   -0.3254 H   0  0
   22.5341  -22.9253   -0.5562 H   0  0
   26.2246  -23.7409   -1.1236 H   0  0
   21.3099  -27.1606   -0.1093 H   0  0
   21.4256  -26.1979    1.3837 H   0  0
   27.0906  -25.3019   -1.8260 H   0  0
   18.8878  -26.2583    0.8042 H   0  0
   17.1329  -24.8971    0.0714 H   0  0
   18.0628  -24.6164   -1.4197 H   0  0
   18.2982  -23.5546   -0.0110 H   0  0
   22.9763  -28.3610    0.2491 H   0  0
   24.1062  -27.9669   -1.0690 H   0  0
   26.0180  -28.4645    0.5128 H   0  0
   24.8205  -29.0189    1.7078 H   0  0
   24.0269  -30.7545    0.1553 H   0  0
   25.1340  -30.1640   -1.1077 H   0  0
   27.0757  -30.6543    0.3985 H   0  0
   25.9478  -31.3038    1.6132 H   0  0
   26.9349  -33.1329    0.2471 H   0  0
   26.3065  -32.3680   -1.2318 H   0  0
   25.1789  -33.0174   -0.0176 H   0  0
  1  2  1  0  0  0
  2  3  1  0  0  0
  3  4  1  0  0  0
  4  5  1  0  0  0
  5  1  1  0  0  0
  4  6  1  0  0  0
  1  7  1  0  0  0
  5  8  1  0  0  0
  2  9  1  0  0  0
  6 10  1  0  0  0
  9 11  1  0  0  0
 11 12  1  0  0  0
 11 13  2  0  0  0
 12 14  1  0  0  0
  3 15  1  0  0  0
 15 16  1  0  0  0
 16 17  1  0  0  0
 17 18  1  0  0  0
 18 19  1  0  0  0
  1 20  1  0  0  0
  2 21  1  0  0  0
  4 22  1  0  0  0
  5 23  1  0  0  0
  6 24  1  0  0  0
  6 25  1  0  0  0
  7 26  1  0  0  0
  8 27  1  0  0  0
  9 28  1  0  0  0
  9 29  1  0  0  0
 10 30  1  0  0  0
 12 31  1  0  0  0
 14 32  1  0  0  0
 14 33  1  0  0  0
 14 34  1  0  0  0
 15 35  1  0  0  0
 15 36  1  0  0  0
 16 37  1  0  0  0
 16 38  1  0  0  0
 17 39  1  0  0  0
 17 40  1  0  0  0
 18 41  1  0  0  0
 18 42  1  0  0  0
 19 43  1  0  0  0
 19 44  1  0  0  0
 19 45  1  0  0  0
M  END
> <Clean Energy>
73.898

> <Ki>
890µM

> <Chemical Formula>
C13H26N2O4

> <Forcefield>
MMFF

> <ForcefieldBase>
MMFF

> <ForcefieldFFML>
<?xml version="1.0" encoding="UTF-8"?>
<!DOCTYPE ffml SYSTEM "Ffml.dtd">
<ffml version="1.0">
<forcefield name="C13H26N2O4-MMFF" derivedFrom="MMFF" base="MMFF">
<atomTypes>
<atomType
 name="C100"
 element="C"
 mass="12.011"
 annotation=""/>
<atomType
 name="N101"
 element="N"
 mass="14.007"
 annotation=""/>
<atomType
 name="O102"
 element="O"
 mass="16"
 annotation=""/>
<atomType
 name="H103"
 element="H"
 mass="1.008"
 annotation=""/>
</atomTypes>
<parameters>
</parameters>
</forcefield>
</ffml>

> <Reference>
Bergeron-Brlek et al., 2015

$$$$
C13H26N2O4
  DSViewer          3D                             0

 45 45  0  0  0  0  0  0  0  0999 V2000
   23.3010  -24.2520    0.2778 C   0  0  2  0  0  0
   22.9097  -25.7526    0.0899 C   0  0  1  0  0  0
   24.0438  -26.5101    0.5469 N   0  0
   25.0890  -25.6891   -0.3627 C   0  0  1  0  0  0
   24.8273  -24.4164    0.3059 C   0  0  1  0  0  0
   26.5856  -26.0689   -0.2180 C   0  0
   23.0293  -23.5813    1.5073 O   0  0
   25.5440  -23.2302   -0.0390 O   0  0
   21.4726  -26.1187    0.5588 C   0  0
   27.3929  -25.1363   -0.9344 O   0  0
   20.3970  -25.3075   -0.1396 C   0  0
   19.1308  -25.4298    0.2526 N   0  0
   20.6751  -24.5420   -1.0683 O   0  0
   18.1007  -24.6702   -0.3968 C   0  0
   23.8772  -27.9548    0.1627 C   0  0
   25.0387  -28.8555    0.6538 C   0  0
   24.9038  -30.2708    0.0747 C   0  0
   26.1306  -31.0978    0.5050 C   0  0
   26.0560  -32.5020   -0.1191 C   0  0
   22.9851  -23.6527   -0.5761 H   0  0
   22.8946  -25.9014   -0.9898 H   0  0
   24.7798  -25.6650   -1.4076 H   0  0
   25.0701  -24.5954    1.3533 H   0  0
   26.8627  -26.0521    0.8361 H   0  0
   26.7453  -27.0693   -0.6202 H   0  0
   21.9957  -23.5936    1.6922 H   0  0
   26.5700  -23.3800    0.1266 H   0  0
   21.2990  -27.1751    0.3539 H   0  0
   21.4011  -25.9396    1.6316 H   0  0
   27.1280  -25.1515   -1.9504 H   0  0
   18.8809  -26.0949    1.0527 H   0  0
   17.1371  -24.9012    0.0572 H   0  0
   18.0732  -24.9257   -1.4561 H   0  0
   18.3083  -23.6059   -0.2855 H   0  0
   22.9468  -28.3230    0.5952 H   0  0
   23.8241  -28.0201   -0.9241 H   0  0
   25.9869  -28.4252    0.3316 H   0  0
   25.0148  -28.9098    1.7422 H   0  0
   23.9950  -30.7376    0.4545 H   0  0
   24.8591  -30.2194   -1.0132 H   0  0
   27.0394  -30.5995    0.1675 H   0  0
   26.1455  -31.1848    1.5914 H   0  0
   26.9255  -33.0832    0.1878 H   0  0
   26.0417  -32.4169   -1.2057 H   0  0
   25.1480  -33.0021    0.2178 H   0  0
  1  2  1  0  0  0
  2  3  1  0  0  0
  3  4  1  0  0  0
  4  5  1  0  0  0
  5  1  1  0  0  0
  4  6  1  0  0  0
  1  7  1  0  0  0
  5  8  1  0  0  0
  2  9  1  0  0  0
  6 10  1  0  0  0
  9 11  1  0  0  0
 11 12  1  0  0  0
 11 13  2  0  0  0
 12 14  1  0  0  0
  3 15  1  0  0  0
 15 16  1  0  0  0
 16 17  1  0  0  0
 17 18  1  0  0  0
 18 19  1  0  0  0
  1 20  1  0  0  0
  2 21  1  0  0  0
  4 22  1  0  0  0
  5 23  1  0  0  0
  6 24  1  0  0  0
  6 25  1  0  0  0
  7 26  1  0  0  0
  8 27  1  0  0  0
  9 28  1  0  0  0
  9 29  1  0  0  0
 10 30  1  0  0  0
 12 31  1  0  0  0
 14 32  1  0  0  0
 14 33  1  0  0  0
 14 34  1  0  0  0
 15 35  1  0  0  0
 15 36  1  0  0  0
 16 37  1  0  0  0
 16 38  1  0  0  0
 17 39  1  0  0  0
 17 40  1  0  0  0
 18 41  1  0  0  0
 18 42  1  0  0  0
 19 43  1  0  0  0
 19 44  1  0  0  0
 19 45  1  0  0  0
M  END
> <Clean Energy>
73.9951

> <Ki>
14µM

> <Chemical Formula>
C13H26N2O4

> <Forcefield>
MMFF

> <ForcefieldBase>
MMFF

> <ForcefieldFFML>
<?xml version="1.0" encoding="UTF-8"?>
<!DOCTYPE ffml SYSTEM "Ffml.dtd">
<ffml version="1.0">
<forcefield name="C13H26N2O4-MMFF" derivedFrom="MMFF" base="MMFF">
<atomTypes>
<atomType
 name="C100"
 element="C"
 mass="12.011"
 annotation=""/>
<atomType
 name="N101"
 element="N"
 mass="14.007"
 annotation=""/>
<atomType
 name="O102"
 element="O"
 mass="16"
 annotation=""/>
<atomType
 name="H103"
 element="H"
 mass="1.008"
 annotation=""/>
</atomTypes>
<parameters>
</parameters>
</forcefield>
</ffml>

> <Reference>
Bergeron-Brlek et al., 2015

$$$$
C17H25FN2O4
  DSViewer          3D                             0

 49 50  0  0  0  0  0  0  0  0999 V2000
   24.3903  -25.3831    0.2942 C   0  0  2  0  0  0
   24.0310  -26.8890    0.1000 C   0  0  1  0  0  0
   25.1983  -27.6288    0.5289 N   0  0
   26.2046  -26.7673   -0.3906 C   0  0  1  0  0  0
   25.9171  -25.5083    0.2982 C   0  0  1  0  0  0
   27.7161  -27.0956   -0.2680 C   0  0
   24.1181  -24.7287    1.5323 O   0  0
   26.5946  -24.2986   -0.0437 O   0  0
   22.6046  -27.2813    0.5855 C   0  0
   28.4808  -26.1254   -0.9816 O   0  0
   21.5146  -26.4706   -0.1056 C   0  0
   20.2527  -26.5898    0.3130 N   0  0
   21.7740  -25.7164   -1.0402 O   0  0
   19.2155  -25.8298   -0.3279 C   0  0
   25.0366  -29.0868    0.1508 C   0  0
   26.2829  -29.9718    0.4417 C   0  0
   26.0250  -31.4341    0.0253 C   0  0
   27.3183  -32.2202    0.0633 C   0  0
   27.3031  -33.5347   -0.1545 C   0  0
   28.5569  -34.2976   -0.1431 C   0  0
   29.7147  -33.6760    0.0768 C   0  0
   29.7356  -32.2302    0.3136 C   0  0
   28.5973  -31.5370    0.3096 C   0  0
   30.8610  -34.3740    0.0817 F   0  0
   24.0472  -24.7852   -0.5501 H   0  0
   24.0006  -27.0267   -0.9808 H   0  0
   25.8798  -26.7420   -1.4307 H   0  0
   26.1805  -25.6923    1.3398 H   0  0
   28.0051  -27.0823    0.7829 H   0  0
   27.9065  -28.0844   -0.6852 H   0  0
   23.0875  -24.7661    1.7294 H   0  0
   27.6269  -24.4211    0.1042 H   0  0
   22.4414  -28.3384    0.3754 H   0  0
   22.5407  -27.1099    1.6600 H   0  0
   28.2043  -26.1372   -1.9945 H   0  0
   20.0147  -27.2482    1.1222 H   0  0
   18.2577  -26.0528    0.1420 H   0  0
   19.1712  -26.0935   -1.3846 H   0  0
   19.4295  -24.7656   -0.2281 H   0  0
   24.1935  -29.4918    0.7105 H   0  0
   24.8235  -29.1397   -0.9169 H   0  0
   27.1341  -29.5855   -0.1189 H   0  0
   26.5041  -29.9378    1.5085 H   0  0
   25.3090  -31.8840    0.7131 H   0  0
   25.6199  -31.4548   -0.9865 H   0  0
   26.3579  -34.0443   -0.3416 H   0  0
   28.5408  -35.3739   -0.3147 H   0  0
   30.6827  -31.7213    0.4931 H   0  0
   28.6142  -30.4621    0.4892 H   0  0
  1  2  1  0  0  0
  2  3  1  0  0  0
  3  4  1  0  0  0
  4  5  1  0  0  0
  5  1  1  0  0  0
  4  6  1  0  0  0
  1  7  1  0  0  0
  5  8  1  0  0  0
  2  9  1  0  0  0
  6 10  1  0  0  0
  9 11  1  0  0  0
 11 12  1  0  0  0
 11 13  2  0  0  0
 12 14  1  0  0  0
  3 15  1  0  0  0
 15 16  1  0  0  0
 16 17  1  0  0  0
 17 18  1  0  0  0
 18 19  2  0  0  0
 19 20  1  0  0  0
 20 21  2  0  0  0
 21 22  1  0  0  0
 22 23  2  0  0  0
 23 18  1  0  0  0
 21 24  1  0  0  0
  1 25  1  0  0  0
  2 26  1  0  0  0
  4 27  1  0  0  0
  5 28  1  0  0  0
  6 29  1  0  0  0
  6 30  1  0  0  0
  7 31  1  0  0  0
  8 32  1  0  0  0
  9 33  1  0  0  0
  9 34  1  0  0  0
 10 35  1  0  0  0
 12 36  1  0  0  0
 14 37  1  0  0  0
 14 38  1  0  0  0
 14 39  1  0  0  0
 15 40  1  0  0  0
 15 41  1  0  0  0
 16 42  1  0  0  0
 16 43  1  0  0  0
 17 44  1  0  0  0
 17 45  1  0  0  0
 19 46  1  0  0  0
 20 47  1  0  0  0
 22 48  1  0  0  0
 23 49  1  0  0  0
M  END
> <Clean Energy>
73.813

> <Ki>
44000nM

> <Chemical Formula>
C17H25FN2O4

> <Forcefield>
MMFF

> <ForcefieldBase>
MMFF

> <ForcefieldFFML>
<?xml version="1.0" encoding="UTF-8"?>
<!DOCTYPE ffml SYSTEM "Ffml.dtd">
<ffml version="1.0">
<forcefield name="C17H25FN2O4-MMFF" derivedFrom="MMFF" base="MMFF">
<atomTypes>
<atomType
 name="C100"
 element="C"
 mass="12.011"
 annotation=""/>
<atomType
 name="N101"
 element="N"
 mass="14.007"
 annotation=""/>
<atomType
 name="O102"
 element="O"
 mass="16"
 annotation=""/>
<atomType
 name="F103"
 element="F"
 mass="18.998"
 annotation=""/>
<atomType
 name="H104"
 element="H"
 mass="1.008"
 annotation=""/>
</atomTypes>
<parameters>
</parameters>
</forcefield>
</ffml>

> <Reference>
Bergeron-Brlek et al., 2015

$$$$
C17H26N2O4
  DSViewer          3D                             0

 49 50  0  0  0  0  0  0  0  0999 V2000
   24.1483  -25.2755    0.2916 C   0  0  2  0  0  0
   23.7790  -26.7793    0.1001 C   0  0  1  0  0  0
   24.9387  -27.5255    0.5306 N   0  0
   25.9533  -26.6736   -0.3893 C   0  0  1  0  0  0
   25.6748  -25.4119    0.2971 C   0  0  1  0  0  0
   27.4628  -27.0134   -0.2647 C   0  0
   23.8803  -24.6169    1.5283 O   0  0
   26.3618  -24.2079   -0.0463 O   0  0
   22.3512  -27.1646    0.5854 C   0  0
   28.2361  -26.0509   -0.9792 O   0  0
   21.2645  -26.3535   -0.1072 C   0  0
   20.0014  -26.4744    0.3063 N   0  0
   21.5272  -25.5978   -1.0403 O   0  0
   18.9656  -25.7151   -0.3369 C   0  0
   24.7637  -28.9804    0.1527 C   0  0
   26.0009  -29.8711    0.4467 C   0  0
   25.7416  -31.3295    0.0242 C   0  0
   27.0366  -32.1080    0.0695 C   0  0
   27.0311  -33.4232   -0.1439 C   0  0
   28.2902  -34.1767   -0.1207 C   0  0
   29.4422  -33.5463    0.1043 C   0  0
   29.4522  -32.0997    0.3342 C   0  0
   28.3093  -31.4151    0.3204 C   0  0
   23.8100  -24.6768   -0.5541 H   0  0
   23.7486  -26.9189   -0.9805 H   0  0
   25.6298  -26.6473   -1.4298 H   0  0
   25.9359  -25.5961    1.3391 H   0  0
   27.7508  -27.0004    0.7865 H   0  0
   27.6458  -28.0045   -0.6799 H   0  0
   22.8494  -24.6471    1.7253 H   0  0
   27.3930  -24.3382    0.1027 H   0  0
   22.1845  -28.2217    0.3783 H   0  0
   22.2875  -26.9898    1.6594 H   0  0
   27.9607  -26.0623   -1.9924 H   0  0
   19.7613  -27.1342    1.1137 H   0  0
   18.0065  -25.9401    0.1295 H   0  0
   18.9253  -25.9775   -1.3942 H   0  0
   19.1778  -24.6508   -0.2349 H   0  0
   23.9165  -29.3784    0.7112 H   0  0
   24.5521  -29.0323   -0.9153 H   0  0
   26.8572  -29.4862   -0.1071 H   0  0
   26.2155  -29.8420    1.5150 H   0  0
   25.0221  -31.7823    0.7065 H   0  0
   25.3426  -31.3478   -0.9900 H   0  0
   26.0907  -33.9398   -0.3358 H   0  0
   28.2829  -35.2538   -0.2878 H   0  0
   30.3769  -34.1068    0.1174 H   0  0
   30.3947  -31.5833    0.5165 H   0  0
   28.3176  -30.3392    0.4955 H   0  0
  1  2  1  0  0  0
  2  3  1  0  0  0
  3  4  1  0  0  0
  4  5  1  0  0  0
  5  1  1  0  0  0
  4  6  1  0  0  0
  1  7  1  0  0  0
  5  8  1  0  0  0
  2  9  1  0  0  0
  6 10  1  0  0  0
  9 11  1  0  0  0
 11 12  1  0  0  0
 11 13  2  0  0  0
 12 14  1  0  0  0
  3 15  1  0  0  0
 15 16  1  0  0  0
 16 17  1  0  0  0
 17 18  1  0  0  0
 18 19  2  0  0  0
 19 20  1  0  0  0
 20 21  2  0  0  0
 21 22  1  0  0  0
 22 23  2  0  0  0
 23 18  1  0  0  0
  1 24  1  0  0  0
  2 25  1  0  0  0
  4 26  1  0  0  0
  5 27  1  0  0  0
  6 28  1  0  0  0
  6 29  1  0  0  0
  7 30  1  0  0  0
  8 31  1  0  0  0
  9 32  1  0  0  0
  9 33  1  0  0  0
 10 34  1  0  0  0
 12 35  1  0  0  0
 14 36  1  0  0  0
 14 37  1  0  0  0
 14 38  1  0  0  0
 15 39  1  0  0  0
 15 40  1  0  0  0
 16 41  1  0  0  0
 16 42  1  0  0  0
 17 43  1  0  0  0
 17 44  1  0  0  0
 19 45  1  0  0  0
 20 46  1  0  0  0
 21 47  1  0  0  0
 22 48  1  0  0  0
 23 49  1  0  0  0
M  END
> <Clean Energy>
73.9405

> <Ki>
402000nM

> <Chemical Formula>
C17H26N2O4

> <Forcefield>
MMFF

> <ForcefieldBase>
MMFF

> <ForcefieldFFML>
<?xml version="1.0" encoding="UTF-8"?>
<!DOCTYPE ffml SYSTEM "Ffml.dtd">
<ffml version="1.0">
<forcefield name="C17H26N2O4-MMFF" derivedFrom="MMFF" base="MMFF">
<atomTypes>
<atomType
 name="C100"
 element="C"
 mass="12.011"
 annotation=""/>
<atomType
 name="N101"
 element="N"
 mass="14.007"
 annotation=""/>
<atomType
 name="O102"
 element="O"
 mass="16"
 annotation=""/>
<atomType
 name="H103"
 element="H"
 mass="1.008"
 annotation=""/>
</atomTypes>
<parameters>
</parameters>
</forcefield>
</ffml>

> <Reference>
Bergeron-Brlek et al., 2015

$$$$
C9H15NO4S
  DSViewer          3D                             0

 30 31  0  0  0  0  0  0  0  0999 V2000
   18.5598  -22.0693    0.3270 C   0  0  1  0  0  0
   18.6336  -23.5399   -0.1296 C   0  0  1  0  0  0
   19.9211  -24.1040    0.4407 C   0  0  2  0  0  0
   21.0892  -23.2943   -0.0855 C   0  0  1  0  0  0
   21.0329  -21.9254    0.3324 O   0  0
   19.8207  -21.3131   -0.1945 C   0  0  2  0  0  0
   20.2388  -25.5018    0.1097 N   0  0
   21.5036  -25.7189    0.1370 C   0  0
   22.4342  -24.2679    0.5026 S   0  0
   22.1238  -27.0581   -0.1335 C   0  0
   21.0160  -28.0931   -0.4043 C   0  0
   19.7556  -19.8460    0.2600 C   0  0
   17.5062  -24.2719    0.3533 O   0  0
   17.3774  -21.4616   -0.1955 O   0  0
   20.9056  -19.1490   -0.2224 O   0  0
   18.5374  -22.0287    1.4160 H   0  0
   18.6627  -23.5857   -1.2183 H   0  0
   19.8917  -24.0037    1.5256 H   0  0
   21.0794  -23.3300   -1.1749 H   0  0
   19.8405  -21.3529   -1.2836 H   0  0
   22.7751  -26.9872   -1.0046 H   0  0
   22.7075  -27.3695    0.7328 H   0  0
   21.4670  -29.0658   -0.6007 H   0  0
   20.4318  -27.7825   -1.2705 H   0  0
   20.3642  -28.1646    0.4664 H   0  0
   18.8544  -19.3811   -0.1397 H   0  0
   19.7347  -19.8032    1.3490 H   0  0
   17.4921  -24.2417    1.4028 H   0  0
   17.3981  -21.4993   -1.2446 H   0  0
   21.7739  -19.5970    0.1622 H   0  0
  1  2  1  0  0  0
  2  3  1  0  0  0
  3  4  1  0  0  0
  4  5  1  0  0  0
  5  6  1  0  0  0
  6  1  1  0  0  0
  3  7  1  0  0  0
  7  8  2  0  0  0
  8  9  1  0  0  0
  9  4  1  0  0  0
  8 10  1  0  0  0
 10 11  1  0  0  0
  6 12  1  0  0  0
  2 13  1  0  0  0
  1 14  1  0  0  0
 12 15  1  0  0  0
  1 16  1  0  0  0
  2 17  1  0  0  0
  3 18  1  0  0  0
  4 19  1  0  0  0
  6 20  1  0  0  0
 10 21  1  0  0  0
 10 22  1  0  0  0
 11 23  1  0  0  0
 11 24  1  0  0  0
 11 25  1  0  0  0
 12 26  1  0  0  0
 12 27  1  0  0  0
 13 28  1  0  0  0
 14 29  1  0  0  0
 15 30  1  0  0  0
M  END
> <Clean Energy>
18.6267

> <Chemical Formula>
C9H15NO4S

> <Forcefield>
MMFF

> <ForcefieldBase>
MMFF

> <ForcefieldFFML>
<?xml version="1.0" encoding="UTF-8"?>
<!DOCTYPE ffml SYSTEM "Ffml.dtd">
<ffml version="1.0">
<forcefield name="C9H15NO4S-MMFF" derivedFrom="MMFF" base="MMFF">
<atomTypes>
<atomType
 name="C100"
 element="C"
 mass="12.011"
 annotation=""/>
<atomType
 name="O101"
 element="O"
 mass="16"
 annotation=""/>
<atomType
 name="N102"
 element="N"
 mass="14.007"
 annotation=""/>
<atomType
 name="S103"
 element="S"
 mass="32.066"
 annotation=""/>
<atomType
 name="H104"
 element="H"
 mass="1.008"
 annotation=""/>
</atomTypes>
<parameters>
</parameters>
</forcefield>
</ffml>

> <Reference>
Knapp et al., 2007

$$$$
C10H17NO4S
  DSViewer          3D                             0

 33 34  0  0  0  0  0  0  0  0999 V2000
   18.7924  -22.2950    0.2922 C   0  0  1  0  0  0
   18.8727  -23.7810   -0.1100 C   0  0  1  0  0  0
   20.1404  -24.3285    0.5178 C   0  0  2  0  0  0
   21.3278  -23.5430   -0.0027 C   0  0  1  0  0  0
   21.2649  -22.1591    0.3643 O   0  0
   20.0707  -21.5612   -0.2183 C   0  0  2  0  0  0
   20.4613  -25.7392    0.2516 N   0  0
   21.7224  -25.9601    0.3267 C   0  0
   22.6498  -24.4993    0.6628 S   0  0
   22.3428  -27.3118    0.1315 C   0  0
   21.4549  -28.2484   -0.7081 C   0  0
   19.9972  -20.0790    0.1847 C   0  0
   17.7285  -24.4909    0.3664 O   0  0
   17.6281  -21.7018   -0.2844 O   0  0
   21.1625  -19.4004   -0.2865 O   0  0
   23.8000  -27.2239   -0.3566 C   0  0
   18.7390  -22.2162    1.3780 H   0  0
   18.9331  -23.8659   -1.1950 H   0  0
   20.0796  -24.1866    1.5968 H   0  0
   21.3509  -23.6185   -1.0898 H   0  0
   20.1216  -21.6379   -1.3044 H   0  0
   22.3903  -27.7609    1.1236 H   0  0
   21.9485  -29.2137   -0.8204 H   0  0
   21.2901  -27.8086   -1.6917 H   0  0
   20.4967  -28.3871   -0.2073 H   0  0
   19.1094  -19.6260   -0.2566 H   0  0
   19.9446  -19.9998    1.2706 H   0  0
   17.6848  -24.4232    1.4133 H   0  0
   17.6782  -21.7765   -1.3306 H   0  0
   22.0180  -19.8367    0.1382 H   0  0
   24.2029  -28.2288   -0.4822 H   0  0
   24.3974  -26.6826    0.3771 H   0  0
   23.8330  -26.6979   -1.3107 H   0  0
  1  2  1  0  0  0
  2  3  1  0  0  0
  3  4  1  0  0  0
  4  5  1  0  0  0
  5  6  1  0  0  0
  6  1  1  0  0  0
  3  7  1  0  0  0
  7  8  2  0  0  0
  8  9  1  0  0  0
  9  4  1  0  0  0
  8 10  1  0  0  0
 10 11  1  0  0  0
  6 12  1  0  0  0
  2 13  1  0  0  0
  1 14  1  0  0  0
 12 15  1  0  0  0
 10 16  1  0  0  0
  1 17  1  0  0  0
  2 18  1  0  0  0
  3 19  1  0  0  0
  4 20  1  0  0  0
  6 21  1  0  0  0
 10 22  1  0  0  0
 11 23  1  0  0  0
 11 24  1  0  0  0
 11 25  1  0  0  0
 12 26  1  0  0  0
 12 27  1  0  0  0
 13 28  1  0  0  0
 14 29  1  0  0  0
 15 30  1  0  0  0
 16 31  1  0  0  0
 16 32  1  0  0  0
 16 33  1  0  0  0
M  END
> <Clean Energy>
22.0454

> <Chemical Formula>
C10H17NO4S

> <Forcefield>
MMFF

> <ForcefieldBase>
MMFF

> <ForcefieldFFML>
<?xml version="1.0" encoding="UTF-8"?>
<!DOCTYPE ffml SYSTEM "Ffml.dtd">
<ffml version="1.0">
<forcefield name="C10H17NO4S-MMFF" derivedFrom="MMFF" base="MMFF">
<atomTypes>
<atomType
 name="C100"
 element="C"
 mass="12.011"
 annotation=""/>
<atomType
 name="O101"
 element="O"
 mass="16"
 annotation=""/>
<atomType
 name="N102"
 element="N"
 mass="14.007"
 annotation=""/>
<atomType
 name="S103"
 element="S"
 mass="32.066"
 annotation=""/>
<atomType
 name="H104"
 element="H"
 mass="1.008"
 annotation=""/>
</atomTypes>
<parameters>
</parameters>
</forcefield>
</ffml>

> <Reference>
Knapp et al., 2007

$$$$
C8H14NO5+
  DSViewer          3D                             0

 28 29  0  0  0  0  0  0  0  0999 V2000
   17.9957  -19.2126    0.3293 C   0  0  1  0  0  0
   18.0005  -20.6659   -0.1817 C   0  0  1  0  0  0
   19.2528  -21.2989    0.3846 C   0  0  2  0  0  0
   20.4415  -20.5813   -0.0821 C   0  0  1  0  0  0
   20.4796  -19.2174    0.3583 O   0  0
   19.3052  -18.5155   -0.1560 C   0  0  2  0  0  0
   19.5827  -22.6236    0.0357 N   0  3
   20.8616  -22.7025    0.0264 C   0  0
   21.5332  -21.4490    0.2450 O   0  0
   19.3255  -17.0613    0.3412 C   0  0
   16.8345  -21.3631    0.2591 O   0  0
   16.8547  -18.5227   -0.1831 O   0  0
   21.5929  -23.9997   -0.1534 C   0  0
   20.5190  -16.4219   -0.1148 O   0  0
   17.9640  -19.2098    1.4189 H   0  0
   18.0443  -20.6732   -1.2708 H   0  0
   19.2128  -21.2288    1.4716 H   0  0
   20.3810  -20.5548   -1.1701 H   0  0
   19.3323  -18.5222   -1.2456 H   0  0
   18.8951  -23.4143   -0.1806 H   0  0
   18.4568  -16.5311   -0.0493 H   0  0
   19.2998  -17.0489    1.4309 H   0  0
   16.8085  -21.3742    1.3087 H   0  0
   16.8882  -18.5210   -1.2326 H   0  0
   22.6673  -23.8184   -0.1268 H   0  0
   21.3229  -24.4395   -1.1136 H   0  0
   21.3206  -24.6851    0.6491 H   0  0
   21.3559  -16.9329    0.2609 H   0  0
  1  2  1  0  0  0
  2  3  1  0  0  0
  3  4  1  0  0  0
  4  5  1  0  0  0
  5  6  1  0  0  0
  6  1  1  0  0  0
  3  7  1  0  0  0
  7  8  2  0  0  0
  8  9  1  0  0  0
  9  4  1  0  0  0
  6 10  1  0  0  0
  2 11  1  0  0  0
  1 12  1  0  0  0
  8 13  1  0  0  0
 10 14  1  0  0  0
  1 15  1  0  0  0
  2 16  1  0  0  0
  3 17  1  0  0  0
  4 18  1  0  0  0
  6 19  1  0  0  0
  7 20  1  0  0  0
 10 21  1  0  0  0
 10 22  1  0  0  0
 11 23  1  0  0  0
 12 24  1  0  0  0
 13 25  1  0  0  0
 13 26  1  0  0  0
 13 27  1  0  0  0
 14 28  1  0  0  0
M  CHG  1   7   1
M  END
> <Clean Energy>
23.6053

> <Chemical Formula>
C8H14NO5+

> <Forcefield>
MMFF

> <ForcefieldBase>
MMFF

> <ForcefieldFFML>
<?xml version="1.0" encoding="UTF-8"?>
<!DOCTYPE ffml SYSTEM "Ffml.dtd">
<ffml version="1.0">
<forcefield name="C8H14NO5+-MMFF" derivedFrom="MMFF" base="MMFF">
<atomTypes>
<atomType
 name="C100"
 element="C"
 mass="12.011"
 annotation=""/>
<atomType
 name="O101"
 element="O"
 mass="16"
 annotation=""/>
<atomType
 name="N102"
 element="N"
 mass="14.007"
 annotation=""/>
<atomType
 name="H103"
 element="H"
 mass="1.008"
 annotation=""/>
</atomTypes>
<parameters>
</parameters>
</forcefield>
</ffml>

> <Reference>
Knapp et al., 2007

$$$$
C14H17Br2NO7S
  DSViewer          3D                             0

 42 43  0  0  0  0  0  0  0  0999 V2000
   25.1272  -16.5257    0.2678 C   0  0  1  0  0  0
   25.2339  -18.0364   -0.1902 C   0  0  1  0  0  0
   26.5760  -18.5573    0.3720 C   0  0  2  0  0  0
   27.7013  -17.7033   -0.1756 C   0  0  1  0  0  0
   27.6114  -16.3473    0.2393 O   0  0
   26.3890  -15.7622   -0.2753 C   0  0  2  0  0  0
   26.3554  -14.2831    0.1658 C   0  0
   24.1090  -18.8080    0.3099 O   0  0
   23.9425  -15.8701   -0.2815 O   0  0
   26.9627  -19.9355    0.0228 N   0  0
   28.2344  -20.0959    0.0073 C   0  0
   29.1071  -18.6156    0.3650 S   0  0
   25.1961  -13.6208   -0.3363 O   0  0
   25.2370  -12.2810    0.0434 C   0  0
   24.1297  -11.3528   -0.3593 C   0  0
   26.1889  -11.8535    0.7076 O   0  0
   22.7044  -16.2940    0.2362 C   0  0
   21.4419  -15.6950   -0.3089 C   0  0
   22.6367  -17.1180    1.1541 O   0  0
   24.0256  -20.1282   -0.1696 C   0  0
   22.9144  -21.0119    0.3142 C   0  0
   24.8225  -20.5615   -1.0092 O   0  0
   28.8946  -21.4006   -0.3124 C   0  0
   27.7577  -22.9174    0.0950 Br  0  0
   30.6887  -21.5283    0.4109 Br  0  0
   25.1055  -16.4723    1.3563 H   0  0
   25.2527  -18.0854   -1.2789 H   0  0
   26.5611  -18.4624    1.4577 H   0  0
   27.6638  -17.7363   -1.2645 H   0  0
   26.3978  -15.8120   -1.3641 H   0  0
   26.3472  -14.2372    1.2548 H   0  0
   27.2446  -13.7791   -0.2130 H   0  0
   24.3341  -10.3538    0.0258 H   0  0
   23.1859  -11.7132    0.0498 H   0  0
   24.0633  -11.3159   -1.4467 H   0  0
   20.5826  -16.1325    0.1995 H   0  0
   21.3739  -15.8994   -1.3774 H   0  0
   21.4502  -14.6174   -0.1453 H   0  0
   22.9993  -21.9926   -0.1539 H   0  0
   21.9548  -20.5665    0.0518 H   0  0
   22.9805  -21.1198    1.3969 H   0  0
   29.0154  -21.4089   -1.3956 H   0  0
  1  2  1  0  0  0
  2  3  1  0  0  0
  3  4  1  0  0  0
  4  5  1  0  0  0
  5  6  1  0  0  0
  6  1  1  0  0  0
  6  7  1  0  0  0
  2  8  1  0  0  0
  1  9  1  0  0  0
  3 10  1  0  0  0
 10 11  2  0  0  0
 11 12  1  0  0  0
 12  4  1  0  0  0
  7 13  1  0  0  0
 13 14  1  0  0  0
 14 15  1  0  0  0
 14 16  2  0  0  0
  9 17  1  0  0  0
 17 18  1  0  0  0
 17 19  2  0  0  0
  8 20  1  0  0  0
 20 21  1  0  0  0
 20 22  2  0  0  0
 11 23  1  0  0  0
 23 24  1  0  0  0
 23 25  1  0  0  0
  1 26  1  0  0  0
  2 27  1  0  0  0
  3 28  1  0  0  0
  4 29  1  0  0  0
  6 30  1  0  0  0
  7 31  1  0  0  0
  7 32  1  0  0  0
 15 33  1  0  0  0
 15 34  1  0  0  0
 15 35  1  0  0  0
 18 36  1  0  0  0
 18 37  1  0  0  0
 18 38  1  0  0  0
 21 39  1  0  0  0
 21 40  1  0  0  0
 21 41  1  0  0  0
 23 42  1  0  0  0
M  END
> <Clean Energy>
23.4483

> <Chemical Formula>
C14H17Br2NO7S

> <Forcefield>
MMFF

> <ForcefieldBase>
MMFF

> <ForcefieldFFML>
<?xml version="1.0" encoding="UTF-8"?>
<!DOCTYPE ffml SYSTEM "Ffml.dtd">
<ffml version="1.0">
<forcefield name="C14H17Br2NO7S-MMFF" derivedFrom="MMFF" base="MMFF">
<atomTypes>
<atomType
 name="C100"
 element="C"
 mass="12.011"
 annotation=""/>
<atomType
 name="O101"
 element="O"
 mass="16"
 annotation=""/>
<atomType
 name="N102"
 element="N"
 mass="14.007"
 annotation=""/>
<atomType
 name="S103"
 element="S"
 mass="32.066"
 annotation=""/>
<atomType
 name="Br104"
 element="Br"
 mass="79.904"
 annotation=""/>
<atomType
 name="H105"
 element="H"
 mass="1.008"
 annotation=""/>
</atomTypes>
<parameters>
</parameters>
</forcefield>
</ffml>

> <Reference>
Knapp et al., 2007

$$$$
C14H16Br3NO7S
  DSViewer          3D                             0

 42 43  0  0  0  0  0  0  0  0999 V2000
   25.2594  -16.6059    0.2083 C   0  0  1  0  0  0
   25.4116  -18.1317   -0.1928 C   0  0  1  0  0  0
   26.7457  -18.5906    0.4402 C   0  0  2  0  0  0
   27.8751  -17.7391   -0.1024 C   0  0  1  0  0  0
   27.7348  -16.3699    0.2403 O   0  0
   26.5165  -15.8315   -0.3264 C   0  0  2  0  0  0
   26.4472  -14.3445    0.0816 C   0  0
   24.2917  -18.9111    0.3011 O   0  0
   24.0728  -15.9948   -0.3809 O   0  0
   27.1849  -19.9793    0.2106 N   0  0
   28.4584  -20.1009    0.2860 C   0  0
   29.2685  -18.5740    0.5781 S   0  0
   25.2894  -13.6977   -0.4368 O   0  0
   25.3124  -12.3637   -0.0304 C   0  0
   24.2040  -11.4355   -0.4278 C   0  0
   26.2497  -11.9436    0.6596 O   0  0
   22.8420  -16.4268    0.1496 C   0  0
   21.5665  -15.8775   -0.4159 C   0  0
   22.7925  -17.2144    1.1011 O   0  0
   24.2633  -20.2479   -0.1384 C   0  0
   23.1629  -21.1504    0.3346 C   0  0
   25.1016  -20.6811   -0.9375 O   0  0
   29.1766  -21.4020    0.1267 C   0  0
   27.9410  -22.8846    0.3136 Br  0  0
   29.9711  -21.4448   -1.6415 Br  0  0
   30.6308  -21.4978    1.4065 Br  0  0
   25.2127  -16.5182    1.2937 H   0  0
   25.4706  -18.2214   -1.2775 H   0  0
   26.6845  -18.4276    1.5162 H   0  0
   27.9004  -17.8327   -1.1881 H   0  0
   26.5560  -15.9088   -1.4129 H   0  0
   26.4278  -14.2797    1.1695 H   0  0
   27.3331  -13.8350   -0.2975 H   0  0
   24.3962  -10.4433   -0.0196 H   0  0
   23.2577  -11.8110   -0.0382 H   0  0
   24.1510  -11.3765   -1.5150 H   0  0
   20.7174  -16.3165    0.1079 H   0  0
   21.5040  -16.1212   -1.4765 H   0  0
   21.5496  -14.7948   -0.2907 H   0  0
   23.2935  -22.1417   -0.0993 H   0  0
   22.2001  -20.7432    0.0256 H   0  0
   23.1940  -21.2233    1.4218 H   0  0
  1  2  1  0  0  0
  2  3  1  0  0  0
  3  4  1  0  0  0
  4  5  1  0  0  0
  5  6  1  0  0  0
  6  1  1  0  0  0
  6  7  1  0  0  0
  2  8  1  0  0  0
  1  9  1  0  0  0
  3 10  1  0  0  0
 10 11  2  0  0  0
 11 12  1  0  0  0
 12  4  1  0  0  0
  7 13  1  0  0  0
 13 14  1  0  0  0
 14 15  1  0  0  0
 14 16  2  0  0  0
  9 17  1  0  0  0
 17 18  1  0  0  0
 17 19  2  0  0  0
  8 20  1  0  0  0
 20 21  1  0  0  0
 20 22  2  0  0  0
 11 23  1  0  0  0
 23 24  1  0  0  0
 23 25  1  0  0  0
 23 26  1  0  0  0
  1 27  1  0  0  0
  2 28  1  0  0  0
  3 29  1  0  0  0
  4 30  1  0  0  0
  6 31  1  0  0  0
  7 32  1  0  0  0
  7 33  1  0  0  0
 15 34  1  0  0  0
 15 35  1  0  0  0
 15 36  1  0  0  0
 18 37  1  0  0  0
 18 38  1  0  0  0
 18 39  1  0  0  0
 21 40  1  0  0  0
 21 41  1  0  0  0
 21 42  1  0  0  0
M  END
> <Clean Energy>
32.0772

> <Chemical Formula>
C14H16Br3NO7S

> <Forcefield>
MMFF

> <ForcefieldBase>
MMFF

> <ForcefieldFFML>
<?xml version="1.0" encoding="UTF-8"?>
<!DOCTYPE ffml SYSTEM "Ffml.dtd">
<ffml version="1.0">
<forcefield name="C14H16Br3NO7S-MMFF" derivedFrom="MMFF" base="MMFF">
<atomTypes>
<atomType
 name="C100"
 element="C"
 mass="12.011"
 annotation=""/>
<atomType
 name="O101"
 element="O"
 mass="16"
 annotation=""/>
<atomType
 name="N102"
 element="N"
 mass="14.007"
 annotation=""/>
<atomType
 name="S103"
 element="S"
 mass="32.066"
 annotation=""/>
<atomType
 name="Br104"
 element="Br"
 mass="79.904"
 annotation=""/>
<atomType
 name="H105"
 element="H"
 mass="1.008"
 annotation=""/>
</atomTypes>
<parameters>
</parameters>
</forcefield>
</ffml>

> <Reference>
Knapp et al., 2007

$$$$
C14H18FNO7S
  DSViewer          3D                             0

 42 43  0  0  0  0  0  0  0  0999 V2000
   24.9284  -16.3639    0.2585 C   0  0  1  0  0  0
   25.0332  -17.8837   -0.1694 C   0  0  1  0  0  0
   26.3567  -18.3974    0.4409 C   0  0  2  0  0  0
   27.5050  -17.5679   -0.0965 C   0  0  1  0  0  0
   27.4119  -16.2005    0.2787 O   0  0
   26.2041  -15.6179   -0.2748 C   0  0  2  0  0  0
   26.1706  -14.1325    0.1456 C   0  0
   23.8943  -18.6391    0.3210 O   0  0
   23.7572  -15.7117   -0.3222 O   0  0
   26.7441  -19.7904    0.1570 N   0  0
   28.0134  -19.9594    0.1998 C   0  0
   28.8829  -18.4708    0.5300 S   0  0
   25.0227  -13.4686   -0.3794 O   0  0
   25.0556  -12.1314    0.0123 C   0  0
   23.9560  -11.2000   -0.4038 C   0  0
   25.9922  -11.7104    0.7015 O   0  0
   22.5136  -16.1174    0.1989 C   0  0
   21.2568  -15.5243   -0.3660 C   0  0
   22.4375  -16.9167    1.1364 O   0  0
   23.8190  -19.9657   -0.1430 C   0  0
   22.6961  -20.8418    0.3274 C   0  0
   24.6333  -20.4102   -0.9595 O   0  0
   28.6763  -21.2812   -0.0319 C   0  0
   27.7098  -22.2341   -0.2806 F   0  0
   24.8879  -16.2906    1.3453 H   0  0
   25.0792  -17.9555   -1.2560 H   0  0
   26.3122  -18.2654    1.5219 H   0  0
   27.5071  -17.6342   -1.1844 H   0  0
   26.2350  -15.6857   -1.3622 H   0  0
   26.1481  -14.0726    1.2337 H   0  0
   27.0676  -13.6382   -0.2275 H   0  0
   24.1528  -10.2043   -0.0064 H   0  0
   23.0046  -11.5639   -0.0158 H   0  0
   23.9104  -11.1539   -1.4919 H   0  0
   20.3928  -15.9456    0.1478 H   0  0
   21.1930  -15.7524   -1.4300 H   0  0
   21.2701  -14.4432   -0.2268 H   0  0
   22.7899  -21.8285   -0.1261 H   0  0
   21.7432  -20.3986    0.0381 H   0  0
   22.7380  -20.9358    1.4125 H   0  0
   29.3458  -21.2083   -0.8889 H   0  0
   29.2472  -21.5630    0.8529 H   0  0
  1  2  1  0  0  0
  2  3  1  0  0  0
  3  4  1  0  0  0
  4  5  1  0  0  0
  5  6  1  0  0  0
  6  1  1  0  0  0
  6  7  1  0  0  0
  2  8  1  0  0  0
  1  9  1  0  0  0
  3 10  1  0  0  0
 10 11  2  0  0  0
 11 12  1  0  0  0
 12  4  1  0  0  0
  7 13  1  0  0  0
 13 14  1  0  0  0
 14 15  1  0  0  0
 14 16  2  0  0  0
  9 17  1  0  0  0
 17 18  1  0  0  0
 17 19  2  0  0  0
  8 20  1  0  0  0
 20 21  1  0  0  0
 20 22  2  0  0  0
 11 23  1  0  0  0
 23 24  1  0  0  0
  1 25  1  0  0  0
  2 26  1  0  0  0
  3 27  1  0  0  0
  4 28  1  0  0  0
  6 29  1  0  0  0
  7 30  1  0  0  0
  7 31  1  0  0  0
 15 32  1  0  0  0
 15 33  1  0  0  0
 15 34  1  0  0  0
 18 35  1  0  0  0
 18 36  1  0  0  0
 18 37  1  0  0  0
 21 38  1  0  0  0
 21 39  1  0  0  0
 21 40  1  0  0  0
 23 41  1  0  0  0
 23 42  1  0  0  0
M  END
> <Clean Energy>
19.7875

> <Chemical Formula>
C14H18FNO7S

> <Forcefield>
MMFF

> <ForcefieldBase>
MMFF

> <ForcefieldFFML>
<?xml version="1.0" encoding="UTF-8"?>
<!DOCTYPE ffml SYSTEM "Ffml.dtd">
<ffml version="1.0">
<forcefield name="C14H18FNO7S-MMFF" derivedFrom="MMFF" base="MMFF">
<atomTypes>
<atomType
 name="C100"
 element="C"
 mass="12.011"
 annotation=""/>
<atomType
 name="O101"
 element="O"
 mass="16"
 annotation=""/>
<atomType
 name="N102"
 element="N"
 mass="14.007"
 annotation=""/>
<atomType
 name="S103"
 element="S"
 mass="32.066"
 annotation=""/>
<atomType
 name="F104"
 element="F"
 mass="18.998"
 annotation=""/>
<atomType
 name="H105"
 element="H"
 mass="1.008"
 annotation=""/>
</atomTypes>
<parameters>
</parameters>
</forcefield>
</ffml>

> <Reference>
Knapp et al., 2007

$$$$
C8H12FNO4S
  DSViewer          3D                             0

 27 28  0  0  0  0  0  0  0  0999 V2000
   18.7087  -21.9610    0.3239 C   0  0  1  0  0  0
   18.7656  -23.4220   -0.1644 C   0  0  1  0  0  0
   20.0413  -24.0171    0.4007 C   0  0  2  0  0  0
   21.2240  -23.2116   -0.0986 C   0  0  1  0  0  0
   21.1836  -21.8518    0.3489 O   0  0
   19.9836  -21.2118   -0.1734 C   0  0  2  0  0  0
   20.3418  -25.4100    0.0364 N   0  0
   21.6033  -25.6448    0.0668 C   0  0
   22.5510  -24.2170    0.4762 S   0  0
   22.2075  -26.9828   -0.2358 C   0  0
   19.9361  -19.7535    0.3099 C   0  0
   17.6249  -24.1491    0.2944 O   0  0
   17.5383  -21.3260   -0.1934 O   0  0
   21.0988  -19.0637   -0.1523 O   0  0
   23.5799  -26.9004   -0.1249 F   0  0
   18.6794  -21.9435    1.4134 H   0  0
   18.8012  -23.4439   -1.2536 H   0  0
   20.0061  -23.9433    1.4876 H   0  0
   21.2215  -23.2229   -1.1885 H   0  0
   20.0104  -21.2299   -1.2629 H   0  0
   21.8292  -27.7210    0.4712 H   0  0
   21.9418  -27.2808   -1.2501 H   0  0
   19.0439  -19.2680   -0.0856 H   0  0
   19.9094  -19.7320    1.3993 H   0  0
   17.6037  -24.1418    1.3442 H   0  0
   17.5662  -21.3413   -1.2429 H   0  0
   21.9583  -19.5317    0.2283 H   0  0
  1  2  1  0  0  0
  2  3  1  0  0  0
  3  4  1  0  0  0
  4  5  1  0  0  0
  5  6  1  0  0  0
  6  1  1  0  0  0
  3  7  1  0  0  0
  7  8  2  0  0  0
  8  9  1  0  0  0
  9  4  1  0  0  0
  8 10  1  0  0  0
  6 11  1  0  0  0
  2 12  1  0  0  0
  1 13  1  0  0  0
 11 14  1  0  0  0
 10 15  1  0  0  0
  1 16  1  0  0  0
  2 17  1  0  0  0
  3 18  1  0  0  0
  4 19  1  0  0  0
  6 20  1  0  0  0
 10 21  1  0  0  0
 10 22  1  0  0  0
 11 23  1  0  0  0
 11 24  1  0  0  0
 12 25  1  0  0  0
 13 26  1  0  0  0
 14 27  1  0  0  0
M  END
> <Clean Energy>
18.7955

> <Chemical Formula>
C8H12FNO4S

> <Forcefield>
MMFF

> <ForcefieldBase>
MMFF

> <ForcefieldFFML>
<?xml version="1.0" encoding="UTF-8"?>
<!DOCTYPE ffml SYSTEM "Ffml.dtd">
<ffml version="1.0">
<forcefield name="C8H12FNO4S-MMFF" derivedFrom="MMFF" base="MMFF">
<atomTypes>
<atomType
 name="C100"
 element="C"
 mass="12.011"
 annotation=""/>
<atomType
 name="O101"
 element="O"
 mass="16"
 annotation=""/>
<atomType
 name="N102"
 element="N"
 mass="14.007"
 annotation=""/>
<atomType
 name="S103"
 element="S"
 mass="32.066"
 annotation=""/>
<atomType
 name="F104"
 element="F"
 mass="18.998"
 annotation=""/>
<atomType
 name="H105"
 element="H"
 mass="1.008"
 annotation=""/>
</atomTypes>
<parameters>
</parameters>
</forcefield>
</ffml>

> <Reference>
Knapp et al., 2007

$$$$
C8H12N4O4S
  DSViewer          3D                             0

 29 30  0  0  0  0  0  0  0  0999 V2000
   25.8361  -14.3912   -1.9482 N   0  0
   25.3533  -14.4722   -3.0360 N   0  3
   24.8715  -14.5542   -4.1168 N   0  5
   19.9470  -18.7769   -0.3040 C   0  0  1  0  0  0
   21.3269  -18.4770    0.4879 C   0  0  1  0  0  0
   22.0042  -17.1507   -0.1870 C   0  0  2  0  0  0
   22.1575  -17.4345   -1.6792 C   0  0  1  0  0  0
   20.8343  -17.6041   -2.3372 O   0  0
   20.1471  -18.8280   -1.8924 C   0  0  2  0  0  0
   23.4186  -16.5613    0.2408 N   0  0
   24.0213  -15.9290   -0.7476 C   0  0
   23.0915  -16.0169   -2.2143 S   0  0
   25.3974  -15.1490   -0.6861 C   0  0
   18.7024  -18.9267   -2.5833 C   0  0
   21.0208  -18.2927    1.9015 O   0  0
   19.3464  -20.0301    0.1554 O   0  0
   18.7489  -18.9109   -4.0359 O   0  0
   19.2499  -17.9695   -0.0800 H   0  0
   22.0013  -19.3254    0.3722 H   0  0
   21.2808  -16.3410   -0.0907 H   0  0
   22.7524  -18.3370   -1.8192 H   0  0
   20.7423  -19.7012   -2.1596 H   0  0
   25.3256  -14.4224    0.1232 H   0  0
   26.1755  -15.8762   -0.4543 H   0  0
   18.2308  -19.8560   -2.2640 H   0  0
   18.1023  -18.0804   -2.2489 H   0  0
   20.3607  -17.4840    2.0147 H   0  0
   20.0140  -20.8222   -0.0161 H   0  0
   19.1916  -18.0166   -4.3627 H   0  0
  2  3  2  0  0  0
  1  2  2  0  0  0
  4  5  1  0  0  0
  5  6  1  0  0  0
  6  7  1  0  0  0
  7  8  1  0  0  0
  8  9  1  0  0  0
  9  4  1  0  0  0
  6 10  1  0  0  0
 10 11  2  0  0  0
 11 12  1  0  0  0
 12  7  1  0  0  0
 11 13  1  0  0  0
  9 14  1  0  0  0
  5 15  1  0  0  0
  4 16  1  0  0  0
 14 17  1  0  0  0
  4 18  1  0  0  0
  5 19  1  0  0  0
  6 20  1  0  0  0
  7 21  1  0  0  0
  9 22  1  0  0  0
 13 23  1  0  0  0
 13 24  1  0  0  0
 14 25  1  0  0  0
 14 26  1  0  0  0
 15 27  1  0  0  0
 16 28  1  0  0  0
 17 29  1  0  0  0
 13  1  1  0  0  0
M  CHG  2   2   1   3  -1
M  END
> <Clean Energy>
34.8247

> <Forcefield>
MMFF

> <Chemical Formula>
C8H12N4O4S

> <ForcefieldBase>
MMFF

> <ForcefieldFFML>
<?xml version="1.0" encoding="UTF-8"?>
<!DOCTYPE ffml SYSTEM "Ffml.dtd">
<ffml version="1.0">
<forcefield name="C8H12N4O4S-MMFF" derivedFrom="MMFF" base="MMFF">
<atomTypes>
<atomType
 name="N100"
 element="N"
 mass="14.007"
 annotation=""/>
<atomType
 name="C101"
 element="C"
 mass="12.011"
 annotation=""/>
<atomType
 name="O102"
 element="O"
 mass="16"
 annotation=""/>
<atomType
 name="S103"
 element="S"
 mass="32.066"
 annotation=""/>
<atomType
 name="H104"
 element="H"
 mass="1.008"
 annotation=""/>
</atomTypes>
<parameters>
</parameters>
</forcefield>
</ffml>

> <Reference>
Knapp et al., 2007

$$$$
C16H21NO9S
  DSViewer          3D                             0

 48 49  0  0  0  0  0  0  0  0999 V2000
   18.4269  -22.1024    0.2234 C   0  0  1  0  0  0
   18.5246  -23.6226   -0.1895 C   0  0  1  0  0  0
   19.8273  -24.1461    0.4538 C   0  0  2  0  0  0
   20.9974  -23.3298   -0.0620 C   0  0  1  0  0  0
   20.9066  -21.9548    0.3070 O   0  0
   19.7126  -21.3729   -0.2815 C   0  0  2  0  0  0
   20.2019  -25.5440    0.1842 N   0  0
   21.4672  -25.7309    0.2509 C   0  0
   22.3525  -24.2512    0.5923 S   0  0
   22.1113  -27.0656    0.0378 C   0  0
   19.6309  -19.8924    0.1257 C   0  0
   17.3637  -24.3574    0.2792 O   0  0
   17.2817  -21.4361   -0.3894 O   0  0
   20.7994  -19.2061   -0.3263 O   0  0
   23.5288  -26.9454    0.1459 O   0  0
   20.7316  -17.8672    0.0534 C   0  0
   21.8500  -16.9306   -0.3004 C   0  0
   19.7530  -17.4489    0.6832 O   0  0
   16.0220  -21.8192    0.1115 C   0  0
   14.7841  -21.2144   -0.4820 C   0  0
   15.9176  -22.6070    1.0561 O   0  0
   17.2773  -25.6854   -0.1747 C   0  0
   16.1277  -26.5372    0.2754 C   0  0
   18.1032  -26.1505   -0.9675 O   0  0
   24.1104  -28.1973   -0.0382 C   0  0
   23.3991  -29.1860   -0.2529 O   0  0
   25.6016  -28.3480    0.0260 C   0  0
   18.3612  -22.0207    1.3083 H   0  0
   18.5946  -23.7030   -1.2743 H   0  0
   19.7592  -24.0087    1.5329 H   0  0
   21.0199  -23.3993   -1.1495 H   0  0
   19.7697  -21.4479   -1.3674 H   0  0
   21.7498  -27.7653    0.7914 H   0  0
   21.8551  -27.4357   -0.9549 H   0  0
   18.7476  -19.4404   -0.3254 H   0  0
   19.5637  -19.8180    1.2111 H   0  0
   21.6225  -15.9335    0.0763 H   0  0
   21.9632  -16.8920   -1.3839 H   0  0
   22.7775  -17.2854    0.1490 H   0  0
   13.9050  -21.6191    0.0195 H   0  0
   14.7368  -21.4516   -1.5448 H   0  0
   14.8097  -20.1324   -0.3523 H   0  0
   16.2151  -27.5295   -0.1668 H   0  0
   15.1903  -26.0801   -0.0415 H   0  0
   16.1411  -26.6217    1.3621 H   0  0
   25.8693  -29.3914   -0.1407 H   0  0
   25.9570  -28.0346    1.0076 H   0  0
   26.0634  -27.7278   -0.7423 H   0  0
  1  2  1  0  0  0
  2  3  1  0  0  0
  3  4  1  0  0  0
  4  5  1  0  0  0
  5  6  1  0  0  0
  6  1  1  0  0  0
  3  7  1  0  0  0
  7  8  2  0  0  0
  8  9  1  0  0  0
  9  4  1  0  0  0
  8 10  1  0  0  0
  6 11  1  0  0  0
  2 12  1  0  0  0
  1 13  1  0  0  0
 11 14  1  0  0  0
 10 15  1  0  0  0
 14 16  1  0  0  0
 16 17  1  0  0  0
 16 18  2  0  0  0
 13 19  1  0  0  0
 19 20  1  0  0  0
 19 21  2  0  0  0
 12 22  1  0  0  0
 22 23  1  0  0  0
 22 24  2  0  0  0
 15 25  1  0  0  0
 25 26  2  0  0  0
 25 27  1  0  0  0
  1 28  1  0  0  0
  2 29  1  0  0  0
  3 30  1  0  0  0
  4 31  1  0  0  0
  6 32  1  0  0  0
 10 33  1  0  0  0
 10 34  1  0  0  0
 11 35  1  0  0  0
 11 36  1  0  0  0
 17 37  1  0  0  0
 17 38  1  0  0  0
 17 39  1  0  0  0
 20 40  1  0  0  0
 20 41  1  0  0  0
 20 42  1  0  0  0
 23 43  1  0  0  0
 23 44  1  0  0  0
 23 45  1  0  0  0
 27 46  1  0  0  0
 27 47  1  0  0  0
 27 48  1  0  0  0
M  END
> <Clean Energy>
19.7505

> <Chemical Formula>
C16H21NO9S

> <Forcefield>
MMFF

> <ForcefieldBase>
MMFF

> <ForcefieldFFML>
<?xml version="1.0" encoding="UTF-8"?>
<!DOCTYPE ffml SYSTEM "Ffml.dtd">
<ffml version="1.0">
<forcefield name="C16H21NO9S-MMFF" derivedFrom="MMFF" base="MMFF">
<atomTypes>
<atomType
 name="C100"
 element="C"
 mass="12.011"
 annotation=""/>
<atomType
 name="O101"
 element="O"
 mass="16"
 annotation=""/>
<atomType
 name="N102"
 element="N"
 mass="14.007"
 annotation=""/>
<atomType
 name="S103"
 element="S"
 mass="32.066"
 annotation=""/>
<atomType
 name="H104"
 element="H"
 mass="1.008"
 annotation=""/>
</atomTypes>
<parameters>
</parameters>
</forcefield>
</ffml>

> <Reference>
Knapp et al., 2007

$$$$
C8H13NO5S
  DSViewer          3D                             0

 28 29  0  0  0  0  0  0  0  0999 V2000
   18.7076  -21.9590    0.3240 C   0  0  1  0  0  0
   18.7622  -23.4200   -0.1646 C   0  0  1  0  0  0
   20.0373  -24.0170    0.4003 C   0  0  2  0  0  0
   21.2211  -23.2132   -0.0989 C   0  0  1  0  0  0
   21.1827  -21.8534    0.3488 O   0  0
   19.9835  -21.2116   -0.1733 C   0  0  2  0  0  0
   20.3356  -25.4104    0.0357 N   0  0
   21.5971  -25.6470    0.0661 C   0  0
   22.5466  -24.2206    0.4756 S   0  0
   22.1991  -26.9860   -0.2369 C   0  0
   19.9382  -19.7533    0.3102 C   0  0
   17.6207  -24.1455    0.2942 O   0  0
   17.5381  -21.3223   -0.1931 O   0  0
   21.1018  -19.0651   -0.1519 O   0  0
   23.6214  -26.9030   -0.1216 O   0  0
   18.6786  -21.9416    1.4135 H   0  0
   18.7977  -23.4418   -1.2538 H   0  0
   20.0023  -23.9433    1.4872 H   0  0
   21.2185  -23.2242   -1.1889 H   0  0
   20.0101  -21.2295   -1.2629 H   0  0
   21.8193  -27.7238    0.4699 H   0  0
   21.9331  -27.2832   -1.2513 H   0  0
   19.0466  -19.2664   -0.0850 H   0  0
   19.9116  -19.7319    1.3997 H   0  0
   17.5996  -24.1385    1.3440 H   0  0
   17.5658  -21.3373   -1.2426 H   0  0
   21.9607  -19.5343    0.2284 H   0  0
   23.9873  -26.1919   -0.8021 H   0  0
  1  2  1  0  0  0
  2  3  1  0  0  0
  3  4  1  0  0  0
  4  5  1  0  0  0
  5  6  1  0  0  0
  6  1  1  0  0  0
  3  7  1  0  0  0
  7  8  2  0  0  0
  8  9  1  0  0  0
  9  4  1  0  0  0
  8 10  1  0  0  0
  6 11  1  0  0  0
  2 12  1  0  0  0
  1 13  1  0  0  0
 11 14  1  0  0  0
 10 15  1  0  0  0
  1 16  1  0  0  0
  2 17  1  0  0  0
  3 18  1  0  0  0
  4 19  1  0  0  0
  6 20  1  0  0  0
 10 21  1  0  0  0
 10 22  1  0  0  0
 11 23  1  0  0  0
 11 24  1  0  0  0
 12 25  1  0  0  0
 13 26  1  0  0  0
 14 27  1  0  0  0
 15 28  1  0  0  0
M  END
> <Clean Energy>
18.8303

> <Chemical Formula>
C8H13NO5S

> <Forcefield>
MMFF

> <ForcefieldBase>
MMFF

> <ForcefieldFFML>
<?xml version="1.0" encoding="UTF-8"?>
<!DOCTYPE ffml SYSTEM "Ffml.dtd">
<ffml version="1.0">
<forcefield name="C8H13NO5S-MMFF" derivedFrom="MMFF" base="MMFF">
<atomTypes>
<atomType
 name="C100"
 element="C"
 mass="12.011"
 annotation=""/>
<atomType
 name="O101"
 element="O"
 mass="16"
 annotation=""/>
<atomType
 name="N102"
 element="N"
 mass="14.007"
 annotation=""/>
<atomType
 name="S103"
 element="S"
 mass="32.066"
 annotation=""/>
<atomType
 name="H104"
 element="H"
 mass="1.008"
 annotation=""/>
</atomTypes>
<parameters>
</parameters>
</forcefield>
</ffml>

> <Reference>
Knapp et al., 2007

$$$$
C16H21NO8S2
  DSViewer          3D                             0

 48 49  0  0  0  0  0  0  0  0999 V2000
   18.3732  -22.0558    0.2214 C   0  0  1  0  0  0
   18.4605  -23.5768   -0.1909 C   0  0  1  0  0  0
   19.7583  -24.1100    0.4512 C   0  0  2  0  0  0
   20.9353  -23.3034   -0.0631 C   0  0  1  0  0  0
   20.8551  -21.9278    0.3067 O   0  0
   19.6658  -21.3360   -0.2806 C   0  0  2  0  0  0
   20.1209  -25.5105    0.1830 N   0  0
   21.3839  -25.7092    0.2501 C   0  0
   22.2829  -24.2371    0.5910 S   0  0
   22.0130  -27.0524    0.0400 C   0  0
   19.5969  -19.8547    0.1269 C   0  0
   17.2948  -24.3047    0.2752 O   0  0
   17.2327  -21.3821   -0.3889 O   0  0
   20.7727  -19.1801   -0.3247 O   0  0
   23.8093  -26.9274    0.1716 S   0  0
   20.7205  -17.8407    0.0559 C   0  0
   21.8497  -16.9171   -0.2978 C   0  0
   19.7472  -17.4114    0.6865 O   0  0
   15.9703  -21.7576    0.1106 C   0  0
   14.7358  -21.1463   -0.4815 C   0  0
   15.8614  -22.5467    1.0557 O   0  0
   17.2001  -25.6310   -0.1823 C   0  0
   16.0468  -26.4780    0.2659 C   0  0
   18.0231  -26.0984   -0.9777 O   0  0
   24.5063  -28.5409   -0.0405 C   0  0
   23.7637  -29.5157   -0.2047 O   0  0
   25.9948  -28.7271   -0.0145 C   0  0
   18.3078  -21.9746    1.3064 H   0  0
   18.5307  -23.6571   -1.2757 H   0  0
   19.6909  -23.9720    1.5303 H   0  0
   20.9577  -23.3722   -1.1507 H   0  0
   19.7230  -21.4103   -1.3666 H   0  0
   21.6441  -27.7448    0.7967 H   0  0
   21.7496  -27.4221   -0.9509 H   0  0
   18.7182  -19.3945   -0.3248 H   0  0
   19.5296  -19.7796    1.2123 H   0  0
   21.6341  -15.9176    0.0796 H   0  0
   21.9630  -16.8791   -1.3813 H   0  0
   22.7732  -17.2829    0.1510 H   0  0
   13.8549  -21.5470    0.0201 H   0  0
   14.6868  -21.3825   -1.5445 H   0  0
   14.7670  -20.0646   -0.3512 H   0  0
   16.1287  -27.4694   -0.1796 H   0  0
   15.1115  -26.0150   -0.0488 H   0  0
   16.0606  -26.5661    1.3523 H   0  0
   26.2323  -29.7808   -0.1608 H   0  0
   26.3861  -28.3973    0.9479 H   0  0
   26.4491  -28.1388   -0.8118 H   0  0
  1  2  1  0  0  0
  2  3  1  0  0  0
  3  4  1  0  0  0
  4  5  1  0  0  0
  5  6  1  0  0  0
  6  1  1  0  0  0
  3  7  1  0  0  0
  7  8  2  0  0  0
  8  9  1  0  0  0
  9  4  1  0  0  0
  8 10  1  0  0  0
  6 11  1  0  0  0
  2 12  1  0  0  0
  1 13  1  0  0  0
 11 14  1  0  0  0
 10 15  1  0  0  0
 14 16  1  0  0  0
 16 17  1  0  0  0
 16 18  2  0  0  0
 13 19  1  0  0  0
 19 20  1  0  0  0
 19 21  2  0  0  0
 12 22  1  0  0  0
 22 23  1  0  0  0
 22 24  2  0  0  0
 15 25  1  0  0  0
 25 26  2  0  0  0
 25 27  1  0  0  0
  1 28  1  0  0  0
  2 29  1  0  0  0
  3 30  1  0  0  0
  4 31  1  0  0  0
  6 32  1  0  0  0
 10 33  1  0  0  0
 10 34  1  0  0  0
 11 35  1  0  0  0
 11 36  1  0  0  0
 17 37  1  0  0  0
 17 38  1  0  0  0
 17 39  1  0  0  0
 20 40  1  0  0  0
 20 41  1  0  0  0
 20 42  1  0  0  0
 23 43  1  0  0  0
 23 44  1  0  0  0
 23 45  1  0  0  0
 27 46  1  0  0  0
 27 47  1  0  0  0
 27 48  1  0  0  0
M  END
> <Clean Energy>
19.9476

> <Chemical Formula>
C16H21NO8S2

> <Forcefield>
MMFF

> <ForcefieldBase>
MMFF

> <ForcefieldFFML>
<?xml version="1.0" encoding="UTF-8"?>
<!DOCTYPE ffml SYSTEM "Ffml.dtd">
<ffml version="1.0">
<forcefield name="C16H21NO8S2-MMFF" derivedFrom="MMFF" base="MMFF">
<atomTypes>
<atomType
 name="C100"
 element="C"
 mass="12.011"
 annotation=""/>
<atomType
 name="O101"
 element="O"
 mass="16"
 annotation=""/>
<atomType
 name="N102"
 element="N"
 mass="14.007"
 annotation=""/>
<atomType
 name="S103"
 element="S"
 mass="32.066"
 annotation=""/>
<atomType
 name="H104"
 element="H"
 mass="1.008"
 annotation=""/>
</atomTypes>
<parameters>
</parameters>
</forcefield>
</ffml>

> <Reference>
Knapp et al., 2007

$$$$
C9H15NO4S2
  DSViewer          3D                             0

 31 32  0  0  0  0  0  0  0  0999 V2000
   18.9590  -22.2581    0.3080 C   0  0  1  0  0  0
   19.0143  -23.7220   -0.1718 C   0  0  1  0  0  0
   20.2832  -24.3171    0.4085 C   0  0  2  0  0  0
   21.4743  -23.5203   -0.0836 C   0  0  1  0  0  0
   21.4336  -22.1569    0.3543 O   0  0
   20.2400  -21.5157   -0.1825 C   0  0  2  0  0  0
   20.5815  -25.7149    0.0615 N   0  0
   21.8422  -25.9547    0.1115 C   0  0
   22.7900  -24.5266    0.5178 S   0  0
   22.4431  -27.2999   -0.1633 C   0  0
   20.1925  -20.0547    0.2933 C   0  0
   17.8677  -24.4421    0.2827 O   0  0
   17.7948  -21.6221   -0.2222 O   0  0
   21.3609  -19.3701   -0.1617 O   0  0
   24.2377  -27.2075    0.0466 S   0  0
   24.9645  -28.8372   -0.2540 C   0  0
   18.9208  -22.2346    1.3971 H   0  0
   19.0590  -23.7508   -1.2605 H   0  0
   20.2377  -24.2338    1.4943 H   0  0
   21.4855  -23.5401   -1.1734 H   0  0
   20.2763  -21.5395   -1.2716 H   0  0
   22.0325  -28.0310    0.5330 H   0  0
   22.2112  -27.6003   -1.1851 H   0  0
   19.3051  -19.5688   -0.1123 H   0  0
   20.1563  -20.0280    1.3824 H   0  0
   17.8387  -24.4287    1.3322 H   0  0
   17.8309  -21.6434   -1.2714 H   0  0
   22.2158  -19.8383    0.2286 H   0  0
   26.0457  -28.7822   -0.1278 H   0  0
   24.7337  -29.1566   -1.2703 H   0  0
   24.5525  -29.5556    0.4546 H   0  0
  1  2  1  0  0  0
  2  3  1  0  0  0
  3  4  1  0  0  0
  4  5  1  0  0  0
  5  6  1  0  0  0
  6  1  1  0  0  0
  3  7  1  0  0  0
  7  8  2  0  0  0
  8  9  1  0  0  0
  9  4  1  0  0  0
  8 10  1  0  0  0
  6 11  1  0  0  0
  2 12  1  0  0  0
  1 13  1  0  0  0
 11 14  1  0  0  0
 10 15  1  0  0  0
 15 16  1  0  0  0
  1 17  1  0  0  0
  2 18  1  0  0  0
  3 19  1  0  0  0
  4 20  1  0  0  0
  6 21  1  0  0  0
 10 22  1  0  0  0
 10 23  1  0  0  0
 11 24  1  0  0  0
 11 25  1  0  0  0
 12 26  1  0  0  0
 13 27  1  0  0  0
 14 28  1  0  0  0
 16 29  1  0  0  0
 16 30  1  0  0  0
 16 31  1  0  0  0
M  END
> <Clean Energy>
18.7067

> <Chemical Formula>
C9H15NO4S2

> <Forcefield>
MMFF

> <ForcefieldBase>
MMFF

> <ForcefieldFFML>
<?xml version="1.0" encoding="UTF-8"?>
<!DOCTYPE ffml SYSTEM "Ffml.dtd">
<ffml version="1.0">
<forcefield name="C9H15NO4S2-MMFF" derivedFrom="MMFF" base="MMFF">
<atomTypes>
<atomType
 name="C100"
 element="C"
 mass="12.011"
 annotation=""/>
<atomType
 name="O101"
 element="O"
 mass="16"
 annotation=""/>
<atomType
 name="N102"
 element="N"
 mass="14.007"
 annotation=""/>
<atomType
 name="S103"
 element="S"
 mass="32.066"
 annotation=""/>
<atomType
 name="H104"
 element="H"
 mass="1.008"
 annotation=""/>
</atomTypes>
<parameters>
</parameters>
</forcefield>
</ffml>

> <Reference>
Knapp et al., 2007

$$$$
C14H18INO7S
  DSViewer          3D                             0

 42 43  0  0  0  0  0  0  0  0999 V2000
   16.2332  -24.6115    0.2542 C   0  0  1  0  0  0
   16.3605  -26.1323   -0.1674 C   0  0  1  0  0  0
   17.6933  -26.6230    0.4417 C   0  0  2  0  0  0
   18.8276  -25.7786   -0.1024 C   0  0  1  0  0  0
   18.7144  -24.4119    0.2677 O   0  0
   17.4977  -23.8486   -0.2814 C   0  0  2  0  0  0
   17.4470  -22.3633    0.1371 C   0  0
   15.2338  -26.9026    0.3260 O   0  0
   15.0519  -23.9774   -0.3231 O   0  0
   18.1033  -28.0122    0.1695 N   0  0
   19.3753  -28.1602    0.2110 C   0  0
   20.2215  -26.6550    0.5253 S   0  0
   16.2910  -21.7092   -0.3802 O   0  0
   16.3199  -20.3713    0.0104 C   0  0
   15.2131  -19.4449   -0.3970 C   0  0
   17.2606  -19.9452    0.6917 O   0  0
   13.8142  -24.4000    0.1977 C   0  0
   12.5488  -23.8250   -0.3651 C   0  0
   13.7499  -25.2019    1.1360 O   0  0
   15.1781  -28.2316   -0.1337 C   0  0
   14.0692  -29.1235    0.3395 C   0  0
   15.9987  -28.6657   -0.9502 O   0  0
   20.0594  -29.4740   -0.0058 C   0  0
   18.6063  -30.9581   -0.3110 I   0  0
   16.1941  -24.5358    1.3408 H   0  0
   16.4062  -26.2073   -1.2538 H   0  0
   17.6491  -26.4836    1.5219 H   0  0
   18.8284  -25.8495   -1.1901 H   0  0
   17.5269  -23.9167   -1.3689 H   0  0
   17.4293  -22.3034    1.2253 H   0  0
   18.3366  -21.8593   -0.2406 H   0  0
   15.4087  -18.4483   -0.0014 H   0  0
   14.2665  -19.8130   -0.0014 H   0  0
   15.1587  -19.3992   -1.4847 H   0  0
   11.6915  -24.2591    0.1494 H   0  0
   12.4870  -24.0534   -1.4291 H   0  0
   12.5466  -22.7440   -0.2253 H   0  0
   14.1781  -30.1098   -0.1113 H   0  0
   13.1094  -28.6959    0.0492 H   0  0
   14.1128  -29.2138    1.4249 H   0  0
   20.7054  -29.4095   -0.8814 H   0  0
   20.6580  -29.7232    0.8704 H   0  0
  1  2  1  0  0  0
  2  3  1  0  0  0
  3  4  1  0  0  0
  4  5  1  0  0  0
  5  6  1  0  0  0
  6  1  1  0  0  0
  6  7  1  0  0  0
  2  8  1  0  0  0
  1  9  1  0  0  0
  3 10  1  0  0  0
 10 11  2  0  0  0
 11 12  1  0  0  0
 12  4  1  0  0  0
  7 13  1  0  0  0
 13 14  1  0  0  0
 14 15  1  0  0  0
 14 16  2  0  0  0
  9 17  1  0  0  0
 17 18  1  0  0  0
 17 19  2  0  0  0
  8 20  1  0  0  0
 20 21  1  0  0  0
 20 22  2  0  0  0
 11 23  1  0  0  0
 23 24  1  0  0  0
  1 25  1  0  0  0
  2 26  1  0  0  0
  3 27  1  0  0  0
  4 28  1  0  0  0
  6 29  1  0  0  0
  7 30  1  0  0  0
  7 31  1  0  0  0
 15 32  1  0  0  0
 15 33  1  0  0  0
 15 34  1  0  0  0
 18 35  1  0  0  0
 18 36  1  0  0  0
 18 37  1  0  0  0
 21 38  1  0  0  0
 21 39  1  0  0  0
 21 40  1  0  0  0
 23 41  1  0  0  0
 23 42  1  0  0  0
M  END
> <Clean Energy>
19.7168

> <Chemical Formula>
C14H18INO7S

> <Forcefield>
MMFF

> <ForcefieldBase>
MMFF

> <ForcefieldFFML>
<?xml version="1.0" encoding="UTF-8"?>
<!DOCTYPE ffml SYSTEM "Ffml.dtd">
<ffml version="1.0">
<forcefield name="C14H18INO7S-MMFF" derivedFrom="MMFF" base="MMFF">
<atomTypes>
<atomType
 name="C100"
 element="C"
 mass="12.011"
 annotation=""/>
<atomType
 name="O101"
 element="O"
 mass="16"
 annotation=""/>
<atomType
 name="N102"
 element="N"
 mass="14.007"
 annotation=""/>
<atomType
 name="S103"
 element="S"
 mass="32.066"
 annotation=""/>
<atomType
 name="I104"
 element="I"
 mass="126.905"
 annotation=""/>
<atomType
 name="H105"
 element="H"
 mass="1.008"
 annotation=""/>
</atomTypes>
<parameters>
</parameters>
</forcefield>
</ffml>

> <Reference>
Knapp et al., 2007

$$$$
C14H18N4O7S
  DSViewer          3D                             0

 44 45  0  0  0  0  0  0  0  0999 V2000
   19.8941  -31.9512   -0.0020 N   0  0
   20.5345  -32.9826   -0.0046 N   0  3
   21.1668  -33.9983   -0.0072 N   0  5
   16.4860  -25.1429    0.2786 C   0  0  1  0  0  0
   16.6063  -26.7604   -0.1928 C   0  0  1  0  0  0
   18.0022  -27.3637    0.3605 C   0  0  2  0  0  0
   19.1242  -26.5024   -0.2202 C   0  0  1  0  0  0
   19.0656  -25.0411    0.2734 O   0  0
   17.8168  -24.2801   -0.1917 C   0  0  2  0  0  0
   17.8255  -22.6906    0.3989 C   0  0
   15.4161  -27.5182    0.3107 O   0  0
   15.2291  -24.3996   -0.2302 O   0  0
   18.4246  -28.9013    0.0833 N   0  0
   19.7100  -29.1146    0.0420 C   0  0
   20.5589  -27.5362    0.2300 S   0  0
   16.5797  -21.8649    0.1048 O   0  0
   16.6713  -20.3723    0.0665 C   0  0
   15.3949  -19.5525   -0.1034 C   0  0
   17.7479  -19.7608    0.1465 O   0  0
   13.8936  -25.0192   -0.0921 C   0  0
   12.6432  -24.2225   -0.2882 C   0  0
   13.7245  -26.1875    0.2200 O   0  0
   15.3191  -28.9314    0.1186 C   0  0
   13.9857  -29.6298    0.2873 C   0  0
   16.2700  -29.6026   -0.2594 O   0  0
   20.5534  -30.5637   -0.1263 C   0  0
   16.4554  -25.1239    1.3680 H   0  0
   16.6139  -26.8066   -1.2818 H   0  0
   18.0103  -27.2174    1.4406 H   0  0
   19.0291  -26.5017   -1.3060 H   0  0
   17.8288  -24.2389   -1.2809 H   0  0
   17.9474  -22.7372    1.4811 H   0  0
   18.6792  -22.1755   -0.0415 H   0  0
   15.6425  -18.4910   -0.1102 H   0  0
   14.7157  -19.7613    0.7232 H   0  0
   14.9140  -19.8189   -1.0446 H   0  0
   11.7753  -24.8654   -0.1416 H   0  0
   12.6262  -23.8150   -1.2991 H   0  0
   12.6154  -23.4055    0.4329 H   0  0
   14.1079  -30.6969    0.1021 H   0  0
   13.2673  -29.2185   -0.4218 H   0  0
   13.6210  -29.4772    1.3031 H   0  0
   21.0003  -30.5344   -1.1200 H   0  0
   21.3403  -30.5395    0.6275 H   0  0
  2  3  2  0  0  0
  1  2  2  0  0  0
  4  5  1  0  0  0
  5  6  1  0  0  0
  6  7  1  0  0  0
  7  8  1  0  0  0
  8  9  1  0  0  0
  9  4  1  0  0  0
  9 10  1  0  0  0
  5 11  1  0  0  0
  4 12  1  0  0  0
  6 13  1  0  0  0
 13 14  2  0  0  0
 14 15  1  0  0  0
 15  7  1  0  0  0
 10 16  1  0  0  0
 16 17  1  0  0  0
 17 18  1  0  0  0
 17 19  2  0  0  0
 12 20  1  0  0  0
 20 21  1  0  0  0
 20 22  2  0  0  0
 11 23  1  0  0  0
 23 24  1  0  0  0
 23 25  2  0  0  0
 14 26  1  0  0  0
  4 27  1  0  0  0
  5 28  1  0  0  0
  6 29  1  0  0  0
  7 30  1  0  0  0
  9 31  1  0  0  0
 10 32  1  0  0  0
 10 33  1  0  0  0
 18 34  1  0  0  0
 18 35  1  0  0  0
 18 36  1  0  0  0
 21 37  1  0  0  0
 21 38  1  0  0  0
 21 39  1  0  0  0
 24 40  1  0  0  0
 24 41  1  0  0  0
 24 42  1  0  0  0
 26 43  1  0  0  0
 26 44  1  0  0  0
 26  1  1  0  0  0
M  CHG  2   2   1   3  -1
M  END
> <Clean Energy>
69.9604

> <Chemical Formula>
C14H18N4O7S

> <Forcefield>
MMFF

> <ForcefieldBase>
MMFF

> <ForcefieldFFML>
<?xml version="1.0" encoding="UTF-8"?>
<!DOCTYPE ffml SYSTEM "Ffml.dtd">
<ffml version="1.0">
<forcefield name="C14H18N4O7S-MMFF" derivedFrom="MMFF" base="MMFF">
<atomTypes>
<atomType
 name="N100"
 element="N"
 mass="14.007"
 annotation=""/>
<atomType
 name="C101"
 element="C"
 mass="12.011"
 annotation=""/>
<atomType
 name="O102"
 element="O"
 mass="16"
 annotation=""/>
<atomType
 name="S103"
 element="S"
 mass="32.066"
 annotation=""/>
<atomType
 name="H104"
 element="H"
 mass="1.008"
 annotation=""/>
</atomTypes>
<parameters>
</parameters>
</forcefield>
</ffml>

> <Reference>
Knapp et al., 2007

$$$$
C14H19NO7S
  DSViewer          3D                             0

 42 43  0  0  0  0  0  0  0  0999 V2000
   16.0977  -24.3666    0.2599 C   0  0  1  0  0  0
   16.1966  -25.8829   -0.1834 C   0  0  1  0  0  0
   17.5235  -26.4075    0.4145 C   0  0  2  0  0  0
   18.6696  -25.5727   -0.1194 C   0  0  1  0  0  0
   18.5809  -24.2096    0.2712 O   0  0
   17.3731  -23.6193   -0.2721 C   0  0  2  0  0  0
   17.3459  -22.1370    0.1591 C   0  0
   15.0566  -26.6377    0.3055 O   0  0
   14.9264  -23.7049   -0.3111 O   0  0
   17.9105  -27.7996    0.1107 N   0  0
   19.1812  -27.9681    0.1448 C   0  0
   20.0500  -26.4823    0.4888 S   0  0
   16.1991  -21.4667   -0.3606 O   0  0
   16.2411  -20.1292    0.0282 C   0  0
   15.1451  -19.1926   -0.3859 C   0  0
   17.1834  -19.7115    0.7116 O   0  0
   13.6823  -24.1108    0.2083 C   0  0
   12.4271  -23.5064   -0.3486 C   0  0
   13.6043  -24.9193    1.1376 O   0  0
   14.9720  -27.9592   -0.1685 C   0  0
   13.8453  -28.8322    0.2993 C   0  0
   15.7804  -28.4015   -0.9918 O   0  0
   19.8518  -29.2855   -0.1077 C   0  0
   16.0617  -24.3033    1.3474 H   0  0
   16.2363  -25.9439   -1.2710 H   0  0
   17.4850  -26.2884    1.4973 H   0  0
   18.6659  -25.6268   -1.2081 H   0  0
   17.3994  -23.6788   -1.3602 H   0  0
   17.3247  -22.0845    1.2477 H   0  0
   18.2440  -21.6430   -0.2116 H   0  0
   15.3487  -18.1971    0.0085 H   0  0
   14.1931  -19.5505    0.0063 H   0  0
   15.0958  -19.1486   -1.4740 H   0  0
   11.5620  -23.9290    0.1623 H   0  0
   12.3606  -23.7235   -1.4147 H   0  0
   12.4454  -22.4269   -0.1985 H   0  0
   13.9314  -29.8159   -0.1622 H   0  0
   12.8941  -28.3809    0.0169 H   0  0
   13.8906  -28.9349    1.3835 H   0  0
   20.9317  -29.1667   -0.0210 H   0  0
   19.6044  -29.6334   -1.1106 H   0  0
   19.5072  -30.0155    0.6249 H   0  0
  1  2  1  0  0  0
  2  3  1  0  0  0
  3  4  1  0  0  0
  4  5  1  0  0  0
  5  6  1  0  0  0
  6  1  1  0  0  0
  6  7  1  0  0  0
  2  8  1  0  0  0
  1  9  1  0  0  0
  3 10  1  0  0  0
 10 11  2  0  0  0
 11 12  1  0  0  0
 12  4  1  0  0  0
  7 13  1  0  0  0
 13 14  1  0  0  0
 14 15  1  0  0  0
 14 16  2  0  0  0
  9 17  1  0  0  0
 17 18  1  0  0  0
 17 19  2  0  0  0
  8 20  1  0  0  0
 20 21  1  0  0  0
 20 22  2  0  0  0
 11 23  1  0  0  0
  1 24  1  0  0  0
  2 25  1  0  0  0
  3 26  1  0  0  0
  4 27  1  0  0  0
  6 28  1  0  0  0
  7 29  1  0  0  0
  7 30  1  0  0  0
 15 31  1  0  0  0
 15 32  1  0  0  0
 15 33  1  0  0  0
 18 34  1  0  0  0
 18 35  1  0  0  0
 18 36  1  0  0  0
 21 37  1  0  0  0
 21 38  1  0  0  0
 21 39  1  0  0  0
 23 40  1  0  0  0
 23 41  1  0  0  0
 23 42  1  0  0  0
M  END
> <Clean Energy>
20.1803

> <Chemical Formula>
C14H19NO7S

> <Forcefield>
MMFF

> <ForcefieldBase>
MMFF

> <ForcefieldFFML>
<?xml version="1.0" encoding="UTF-8"?>
<!DOCTYPE ffml SYSTEM "Ffml.dtd">
<ffml version="1.0">
<forcefield name="C14H19NO7S-MMFF" derivedFrom="MMFF" base="MMFF">
<atomTypes>
<atomType
 name="C100"
 element="C"
 mass="12.011"
 annotation=""/>
<atomType
 name="O101"
 element="O"
 mass="16"
 annotation=""/>
<atomType
 name="N102"
 element="N"
 mass="14.007"
 annotation=""/>
<atomType
 name="S103"
 element="S"
 mass="32.066"
 annotation=""/>
<atomType
 name="H104"
 element="H"
 mass="1.008"
 annotation=""/>
</atomTypes>
<parameters>
</parameters>
</forcefield>
</ffml>

> <Reference>
Knapp et al., 2007

$$$$
C16H18F3NO8S
  DSViewer          3D                             0

 47 48  0  0  0  0  0  0  0  0999 V2000
   21.2370  -18.8540    4.1816 C   0  0  1  0  0  0
   22.5782  -18.5454    4.9857 C   0  0  1  0  0  0
   23.1863  -17.1921    4.3338 C   0  0  2  0  0  0
   23.3860  -17.5078    2.8279 C   0  0  1  0  0  0
   22.1785  -17.8238    2.1521 O   0  0
   21.5832  -19.0088    2.6720 C   0  0  2  0  0  0
   20.2957  -19.2683    1.8517 C   0  0
   22.2330  -18.4552    6.3932 O   0  0
   20.6164  -20.1202    4.5833 O   0  0
   24.5453  -16.5501    4.7471 N   0  0
   25.1761  -15.9091    3.5679 C   0  0
   24.1858  -16.0944    2.1642 S   0  0
   19.6244  -20.4554    2.2706 O   0  0
   18.4711  -20.6181    1.5026 C   0  0
   17.5686  -21.7921    1.7416 C   0  0
   18.1895  -19.7934    0.6245 O   0  0
   20.0071  -20.1579    5.8481 C   0  0
   19.3911  -21.4415    6.3228 C   0  0
   19.9346  -19.1498    6.5578 O   0  0
   26.1719  -15.0215    3.5618 C   0  0
   25.0399  -16.4666    6.1402 C   0  0
   24.3289  -16.8786    7.0376 O   0  0
   26.4678  -16.1061    6.5756 C   0  0
   23.1134  -19.1441    7.2534 C   0  0
   24.1041  -19.7326    6.8086 O   0  0
   22.8495  -19.1354    8.7350 C   0  0
   26.7179  -16.6894    7.8005 F   0  0
   27.4178  -16.5059    5.6582 F   0  0
   26.5508  -14.7380    6.7329 F   0  0
   20.5289  -18.0364    4.3163 H   0  0
   23.2827  -19.3641    4.8391 H   0  0
   22.4215  -16.4191    4.4088 H   0  0
   24.0620  -18.3584    2.7411 H   0  0
   22.2696  -19.8454    2.5422 H   0  0
   19.6221  -18.4206    1.9770 H   0  0
   20.5631  -19.3682    0.7998 H   0  0
   16.7262  -21.7499    1.0513 H   0  0
   17.1994  -21.7645    2.7668 H   0  0
   18.1236  -22.7164    1.5805 H   0  0
   18.9662  -21.2957    7.3158 H   0  0
   20.1551  -22.2177    6.3655 H   0  0
   18.6040  -21.7445    5.6323 H   0  0
   26.6134  -14.6912    4.5021 H   0  0
   26.5441  -14.6265    2.6165 H   0  0
   23.6212  -19.7115    9.2454 H   0  0
   21.8741  -19.5797    8.9334 H   0  0
   22.8617  -18.1086    9.1007 H   0  0
  1  2  1  0  0  0
  2  3  1  0  0  0
  3  4  1  0  0  0
  4  5  1  0  0  0
  5  6  1  0  0  0
  6  1  1  0  0  0
  6  7  1  0  0  0
  2  8  1  0  0  0
  1  9  1  0  0  0
  3 10  1  0  0  0
 10 11  1  0  0  0
 11 12  1  0  0  0
 12  4  1  0  0  0
  7 13  1  0  0  0
 13 14  1  0  0  0
 14 15  1  0  0  0
 14 16  2  0  0  0
  9 17  1  0  0  0
 17 18  1  0  0  0
 17 19  2  0  0  0
 11 20  2  0  0  0
 10 21  1  0  0  0
 21 22  2  0  0  0
 21 23  1  0  0  0
  8 24  1  0  0  0
 24 25  2  0  0  0
 24 26  1  0  0  0
 23 27  1  0  0  0
 23 28  1  0  0  0
 23 29  1  0  0  0
  1 30  1  0  0  0
  2 31  1  0  0  0
  3 32  1  0  0  0
  4 33  1  0  0  0
  6 34  1  0  0  0
  7 35  1  0  0  0
  7 36  1  0  0  0
 15 37  1  0  0  0
 15 38  1  0  0  0
 15 39  1  0  0  0
 18 40  1  0  0  0
 18 41  1  0  0  0
 18 42  1  0  0  0
 20 43  1  0  0  0
 20 44  1  0  0  0
 26 45  1  0  0  0
 26 46  1  0  0  0
 26 47  1  0  0  0
M  END
> <Clean Energy>
59.8988

> <Forcefield>
MMFF

> <Chemical Formula>
C16H18F3NO8S

> <ForcefieldBase>
MMFF

> <ForcefieldFFML>
<?xml version="1.0" encoding="UTF-8"?>
<!DOCTYPE ffml SYSTEM "Ffml.dtd">
<ffml version="1.0">
<forcefield name="C16H18F3NO8S-MMFF" derivedFrom="MMFF" base="MMFF">
<atomTypes>
<atomType
 name="C100"
 element="C"
 mass="12.011"
 annotation=""/>
<atomType
 name="O101"
 element="O"
 mass="16"
 annotation=""/>
<atomType
 name="N102"
 element="N"
 mass="14.007"
 annotation=""/>
<atomType
 name="S103"
 element="S"
 mass="32.066"
 annotation=""/>
<atomType
 name="F104"
 element="F"
 mass="18.998"
 annotation=""/>
<atomType
 name="H105"
 element="H"
 mass="1.008"
 annotation=""/>
</atomTypes>
<parameters>
</parameters>
</forcefield>
</ffml>

> <Reference>
Knapp et al., 2007

$$$$
C16H18F3NO8S
  DSViewer          3D                             0

 47 48  0  0  0  0  0  0  0  0999 V2000
   27.0250  -14.3250    1.4667 C   0  0
   28.0924  -13.7975    1.8324 O   0  0
   26.5989  -14.0890    0.0268 C   0  0
   26.5849  -15.2990   -0.6432 F   0  0
   25.3169  -13.5782   -0.0149 F   0  0
   27.4692  -13.2213   -0.5953 F   0  0
   21.2398  -18.6536    2.9665 C   0  0  1  0  0  0
   22.6217  -18.3536    3.6806 C   0  0  1  0  0  0
   23.1771  -17.0716    2.9913 C   0  0  2  0  0  0
   23.3226  -17.3482    1.4986 C   0  0  1  0  0  0
   22.0869  -17.6301    0.8763 O   0  0
   21.5067  -18.8185    1.4324 C   0  0  2  0  0  0
   20.1873  -19.0644    0.6804 C   0  0
   22.4164  -18.1746    5.1068 O   0  0
   20.6295  -19.8945    3.4356 O   0  0
   24.5120  -16.5778    3.3991 N   0  0
   25.1113  -15.8230    2.3396 C   0  0
   24.1215  -15.8964    0.9084 S   0  0
   19.5367  -20.2434    1.1311 O   0  0
   18.3671  -20.4068    0.3966 C   0  0
   17.4724  -21.5788    0.6618 C   0  0
   18.0661  -19.5856   -0.4784 O   0  0
   20.1242  -19.8789    4.7467 C   0  0
   19.5125  -21.1285    5.3070 C   0  0
   20.1334  -18.8491    5.4289 O   0  0
   26.2824  -15.1586    2.4913 C   0  0
   23.5805  -18.0522    5.8765 C   0  0
   24.7023  -18.1426    5.3671 O   0  0
   23.4539  -17.8599    7.3605 C   0  0
   20.5540  -17.8226    3.1318 H   0  0
   23.3072  -19.1842    3.5122 H   0  0
   22.4547  -16.2663    3.1251 H   0  0
   23.9896  -18.1992    1.3607 H   0  0
   22.1793  -19.6608    1.2698 H   0  0
   19.5258  -18.2130    0.8406 H   0  0
   20.4008  -19.1640   -0.3838 H   0  0
   24.9652  -16.7593    4.3513 H   0  0
   16.6118  -21.5380   -0.0058 H   0  0
   17.1306  -21.5488    1.6965 H   0  0
   18.0228  -22.5035    0.4881 H   0  0
   19.1743  -20.9426    6.3264 H   0  0
   20.2547  -21.9268    5.3109 H   0  0
   18.6632  -21.4255    4.6916 H   0  0
   26.7488  -15.2330    3.4737 H   0  0
   24.4468  -17.7835    7.8035 H   0  0
   22.9277  -18.7104    7.7940 H   0  0
   22.8951  -16.9461    7.5626 H   0  0
  3  4  1  0  0  0
  3  5  1  0  0  0
  3  6  1  0  0  0
  1  2  2  0  0  0
  1  3  1  0  0  0
  7  8  1  0  0  0
  8  9  1  0  0  0
  9 10  1  0  0  0
 10 11  1  0  0  0
 11 12  1  0  0  0
 12  7  1  0  0  0
 12 13  1  0  0  0
  8 14  1  0  0  0
  7 15  1  0  0  0
  9 16  1  0  0  0
 16 17  1  0  0  0
 17 18  1  0  0  0
 18 10  1  0  0  0
 13 19  1  0  0  0
 19 20  1  0  0  0
 20 21  1  0  0  0
 20 22  2  0  0  0
 15 23  1  0  0  0
 23 24  1  0  0  0
 23 25  2  0  0  0
 17 26  2  0  0  0
 14 27  1  0  0  0
 27 28  2  0  0  0
 27 29  1  0  0  0
  7 30  1  0  0  0
  8 31  1  0  0  0
  9 32  1  0  0  0
 10 33  1  0  0  0
 12 34  1  0  0  0
 13 35  1  0  0  0
 13 36  1  0  0  0
 16 37  1  0  0  0
 21 38  1  0  0  0
 21 39  1  0  0  0
 21 40  1  0  0  0
 24 41  1  0  0  0
 24 42  1  0  0  0
 24 43  1  0  0  0
 26 44  1  0  0  0
 29 45  1  0  0  0
 29 46  1  0  0  0
 29 47  1  0  0  0
 26  1  1  0  0  0
M  END
> <Clean Energy>
36.4342

> <Forcefield>
MMFF

> <Chemical Formula>
C16H18F3NO8S

> <ForcefieldBase>
MMFF

> <ForcefieldFFML>
<?xml version="1.0" encoding="UTF-8"?>
<!DOCTYPE ffml SYSTEM "Ffml.dtd">
<ffml version="1.0">
<forcefield name="C16H18F3NO8S-MMFF" derivedFrom="MMFF" base="MMFF">
<atomTypes>
<atomType
 name="C100"
 element="C"
 mass="12.011"
 annotation=""/>
<atomType
 name="O101"
 element="O"
 mass="16"
 annotation=""/>
<atomType
 name="F102"
 element="F"
 mass="18.998"
 annotation=""/>
<atomType
 name="N103"
 element="N"
 mass="14.007"
 annotation=""/>
<atomType
 name="S104"
 element="S"
 mass="32.066"
 annotation=""/>
<atomType
 name="H105"
 element="H"
 mass="1.008"
 annotation=""/>
</atomTypes>
<parameters>
</parameters>
</forcefield>
</ffml>

> <Reference>
Knapp et al., 2007

$$$$
C10H12F3NO5S
  DSViewer          3D                             0

 32 33  0  0  0  0  0  0  0  0999 V2000
   28.1775  -13.3359    0.5383 C   0  0
   29.2482  -12.8330    0.9060 O   0  0
   27.7052  -13.0161   -0.8673 C   0  0
   27.6996  -14.1783   -1.6139 F   0  0
   26.4140  -12.5305   -0.8415 F   0  0
   28.5461  -12.0925   -1.4502 F   0  0
   22.3626  -17.4970    2.1755 C   0  0  1  0  0  0
   23.7620  -17.2508    2.7786 C   0  0  1  0  0  0
   24.3365  -16.0463    2.0498 C   0  0  2  0  0  0
   24.4125  -16.3550    0.5601 C   0  0  1  0  0  0
   23.1219  -16.5992   -0.0043 O   0  0
   22.5100  -17.7485    0.6363 C   0  0  2  0  0  0
   21.1231  -17.9792    0.0001 C   0  0
   23.6633  -16.9909    4.1802 O   0  0
   21.7647  -18.6298    2.8084 O   0  0
   25.6903  -15.6248    2.4246 N   0  0
   26.2785  -14.8676    1.3725 C   0  0
   25.2617  -14.9325   -0.0608 S   0  0
   20.4915  -19.1178    0.5843 O   0  0
   27.4378  -14.2000    1.5325 C   0  0
   21.7381  -16.6190    2.3404 H   0  0
   24.3954  -18.1215    2.6086 H   0  0
   23.6611  -15.2029    2.1928 H   0  0
   25.0379  -17.2352    0.4111 H   0  0
   23.1332  -18.6276    0.4722 H   0  0
   20.5013  -17.0993    0.1654 H   0  0
   21.2422  -18.1445   -1.0707 H   0  0
   23.0693  -16.1394    4.3378 H   0  0
   22.3666  -19.4761    2.6532 H   0  0
   26.1671  -15.8535    3.3548 H   0  0
   21.0862  -19.9685    0.4254 H   0  0
   27.9055  -14.2964    2.5123 H   0  0
  3  4  1  0  0  0
  3  5  1  0  0  0
  3  6  1  0  0  0
  1  2  2  0  0  0
  1  3  1  0  0  0
  7  8  1  0  0  0
  8  9  1  0  0  0
  9 10  1  0  0  0
 10 11  1  0  0  0
 11 12  1  0  0  0
 12  7  1  0  0  0
 12 13  1  0  0  0
  8 14  1  0  0  0
  7 15  1  0  0  0
  9 16  1  0  0  0
 16 17  1  0  0  0
 17 18  1  0  0  0
 18 10  1  0  0  0
 13 19  1  0  0  0
 17 20  2  0  0  0
  7 21  1  0  0  0
  8 22  1  0  0  0
  9 23  1  0  0  0
 10 24  1  0  0  0
 12 25  1  0  0  0
 13 26  1  0  0  0
 13 27  1  0  0  0
 14 28  1  0  0  0
 15 29  1  0  0  0
 16 30  1  0  0  0
 19 31  1  0  0  0
 20 32  1  0  0  0
 20  1  1  0  0  0
M  END
> <Clean Energy>
34.8942

> <Forcefield>
MMFF

> <Chemical Formula>
C10H12F3NO5S

> <ForcefieldBase>
MMFF

> <ForcefieldFFML>
<?xml version="1.0" encoding="UTF-8"?>
<!DOCTYPE ffml SYSTEM "Ffml.dtd">
<ffml version="1.0">
<forcefield name="C10H12F3NO5S-MMFF" derivedFrom="MMFF" base="MMFF">
<atomTypes>
<atomType
 name="C100"
 element="C"
 mass="12.011"
 annotation=""/>
<atomType
 name="O101"
 element="O"
 mass="16"
 annotation=""/>
<atomType
 name="F102"
 element="F"
 mass="18.998"
 annotation=""/>
<atomType
 name="N103"
 element="N"
 mass="14.007"
 annotation=""/>
<atomType
 name="S104"
 element="S"
 mass="32.066"
 annotation=""/>
<atomType
 name="H105"
 element="H"
 mass="1.008"
 annotation=""/>
</atomTypes>
<parameters>
</parameters>
</forcefield>
</ffml>

> <Reference>
Knapp et al., 2007

$$$$
C18H20F3NO9S
  DSViewer          3D                             0

 52 53  0  0  0  0  0  0  0  0999 V2000
   27.2112  -13.9732    1.6028 C   0  0
   28.0744  -13.1445    1.9185 O   0  0
   27.0662  -14.2997    0.1354 C   0  0
   25.8292  -13.8959   -0.3152 F   0  0
   27.1528  -15.6672   -0.0406 F   0  0
   28.0445  -13.6471   -0.5847 F   0  0
   21.4783  -18.4527    3.3292 C   0  0  1  0  0  0
   22.8251  -18.1256    4.1181 C   0  0  1  0  0  0
   23.4138  -16.7720    3.4610 C   0  0  2  0  0  0
   23.6051  -17.0922    1.9582 C   0  0  1  0  0  0
   22.3897  -17.4114    1.2911 O   0  0
   21.8084  -18.6018    1.8153 C   0  0  2  0  0  0
   20.5131  -18.8750    1.0095 C   0  0
   22.4997  -18.0290    5.5292 O   0  0
   20.8814  -19.7278    3.7383 O   0  0
   24.7704  -16.1211    3.8684 N   0  0
   25.3973  -15.4578    2.6887 C   0  0
   24.4074  -15.6898    1.2815 S   0  0
   19.8638  -20.0731    1.4335 O   0  0
   18.7024  -20.2533    0.6809 C   0  0
   17.8252  -21.4451    0.9275 C   0  0
   18.3934  -19.4310   -0.1901 O   0  0
   20.2931  -19.7770    5.0114 C   0  0
   19.7126  -21.0730    5.4970 C   0  0
   20.2143  -18.7707    5.7228 O   0  0
   26.5137  -14.6993    2.7149 C   0  0
   23.3683  -18.7557    6.3737 C   0  0
   24.3362  -19.3689    5.9123 O   0  0
   23.1260  -18.7480    7.8588 C   0  0
   25.2869  -16.0538    5.2572 C   0  0
   26.6721  -15.5655    5.6506 C   0  0
   24.6210  -16.5063    6.1700 O   0  0
   20.7602  -17.6454    3.4731 H   0  0
   23.5365  -18.9376    3.9676 H   0  0
   22.6433  -16.0050    3.5394 H   0  0
   24.2772  -17.9460    1.8727 H   0  0
   22.5008  -19.4323    1.6773 H   0  0
   19.8298  -18.0368    1.1466 H   0  0
   20.7682  -18.9675   -0.0462 H   0  0
   16.9722  -21.4154    0.2496 H   0  0
   17.4704  -21.4288    1.9580 H   0  0
   18.3947  -22.3582    0.7541 H   0  0
   19.3000  -20.9350    6.4963 H   0  0
   20.4939  -21.8324    5.5287 H   0  0
   18.9217  -21.3940    4.8191 H   0  0
   26.9801  -14.5989    3.6949 H   0  0
   23.8838  -19.3547    8.3543 H   0  0
   22.1383  -19.1588    8.0684 H   0  0
   23.1799  -17.7249    8.2309 H   0  0
   26.7844  -15.6230    6.7332 H   0  0
   26.7992  -14.5323    5.3271 H   0  0
   27.4272  -16.1905    5.1738 H   0  0
  3  4  1  0  0  0
  3  5  1  0  0  0
  3  6  1  0  0  0
  1  2  2  0  0  0
  1  3  1  0  0  0
  7  8  1  0  0  0
  8  9  1  0  0  0
  9 10  1  0  0  0
 10 11  1  0  0  0
 11 12  1  0  0  0
 12  7  1  0  0  0
 12 13  1  0  0  0
  8 14  1  0  0  0
  7 15  1  0  0  0
  9 16  1  0  0  0
 16 17  1  0  0  0
 17 18  1  0  0  0
 18 10  1  0  0  0
 13 19  1  0  0  0
 19 20  1  0  0  0
 20 21  1  0  0  0
 20 22  2  0  0  0
 15 23  1  0  0  0
 23 24  1  0  0  0
 23 25  2  0  0  0
 17 26  2  0  0  0
 14 27  1  0  0  0
 27 28  2  0  0  0
 27 29  1  0  0  0
 16 30  1  0  0  0
 30 31  1  0  0  0
 30 32  2  0  0  0
  7 33  1  0  0  0
  8 34  1  0  0  0
  9 35  1  0  0  0
 10 36  1  0  0  0
 12 37  1  0  0  0
 13 38  1  0  0  0
 13 39  1  0  0  0
 21 40  1  0  0  0
 21 41  1  0  0  0
 21 42  1  0  0  0
 24 43  1  0  0  0
 24 44  1  0  0  0
 24 45  1  0  0  0
 26 46  1  0  0  0
 29 47  1  0  0  0
 29 48  1  0  0  0
 29 49  1  0  0  0
 31 50  1  0  0  0
 31 51  1  0  0  0
 31 52  1  0  0  0
 26  1  1  0  0  0
M  END
> <Clean Energy>
63.7077

> <Forcefield>
MMFF

> <Chemical Formula>
C18H20F3NO9S

> <ForcefieldBase>
MMFF

> <ForcefieldFFML>
<?xml version="1.0" encoding="UTF-8"?>
<!DOCTYPE ffml SYSTEM "Ffml.dtd">
<ffml version="1.0">
<forcefield name="C18H20F3NO9S-MMFF" derivedFrom="MMFF" base="MMFF">
<atomTypes>
<atomType
 name="C100"
 element="C"
 mass="12.011"
 annotation=""/>
<atomType
 name="O101"
 element="O"
 mass="16"
 annotation=""/>
<atomType
 name="F102"
 element="F"
 mass="18.998"
 annotation=""/>
<atomType
 name="N103"
 element="N"
 mass="14.007"
 annotation=""/>
<atomType
 name="S104"
 element="S"
 mass="32.066"
 annotation=""/>
<atomType
 name="H105"
 element="H"
 mass="1.008"
 annotation=""/>
</atomTypes>
<parameters>
</parameters>
</forcefield>
</ffml>

> <Reference>
Knapp et al., 2007

$$$$
C15H12FNO4S
  DSViewer          3D                             0

 45 46  0  0  0  0  0  0  0  0999 V2000
   18.5602  -17.8833   -8.0468 C   0  0  1  0  0  0
   19.9663  -17.6181   -7.3649 C   0  0  1  0  0  0
   20.5603  -16.3676   -8.0842 C   0  0  2  0  0  0
   20.6784  -16.7036   -9.5596 C   0  0  1  0  0  0
   19.4194  -16.9291  -10.1746 O   0  0
   18.7973  -18.0902   -9.5854 C   0  0  2  0  0  0
   17.4567  -18.3202  -10.3164 C   0  0
   19.8091  -17.4012   -5.9389 O   0  0
   17.9250  -19.1067   -7.5483 O   0  0
   21.9258  -15.9234   -7.7006 N   0  0
   22.5524  -15.3711   -8.6804 C   0  0
   21.6126  -15.3514  -10.1585 S   0  0
   16.7976  -19.4864   -9.8274 O   0  0
   15.6297  -19.6903  -10.5597 C   0  0
   14.7472  -20.8631  -10.2505 C   0  0
   15.3238  -18.9116  -11.4701 O   0  0
   17.4667  -19.0787   -6.2190 C   0  0
   16.8377  -20.3160   -5.6445 C   0  0
   17.5353  -18.0588   -5.5316 O   0  0
   21.0136  -17.3251   -5.2186 C   0  0
   20.9637  -17.0921   -3.7370 C   0  0
   22.1056  -17.4929   -5.7703 O   0  0
   23.9553  -14.8241   -8.6027 C   0  0
   24.2316  -14.1642   -7.2406 C   0  0
   25.5385  -13.7188   -7.2130 F   0  0
   24.0296  -15.0589   -6.2115 F   0  0
   23.3811  -13.0877   -7.0941 F   0  0
   17.9017  -17.0301   -7.8839 H   0  0
   20.6178  -18.4760   -7.5316 H   0  0
   19.8708  -15.5316   -7.9664 H   0  0
   21.2780  -17.6083   -9.6601 H   0  0
   19.4410  -18.9569   -9.7356 H   0  0
   16.8125  -17.4552  -10.1586 H   0  0
   17.6490  -18.4411  -11.3825 H   0  0
   13.8876  -20.8583  -10.9206 H   0  0
   14.4030  -20.7973   -9.2184 H   0  0
   15.3089  -21.7872  -10.3875 H   0  0
   16.5397  -20.1274   -4.6132 H   0  0
   17.5565  -21.1351   -5.6704 H   0  0
   15.9601  -20.5846   -6.2325 H   0  0
   21.9781  -17.0606   -3.3393 H   0  0
   20.4118  -17.9019   -3.2597 H   0  0
   20.4651  -16.1442   -3.5343 H   0  0
   24.6619  -15.6410   -8.7496 H   0  0
   24.0893  -14.0813   -9.3891 H   0  0
  1  2  1  0  0  0
  2  3  1  0  0  0
  3  4  1  0  0  0
  4  5  1  0  0  0
  5  6  1  0  0  0
  6  1  1  0  0  0
  6  7  1  0  0  0
  2  8  1  0  0  0
  1  9  1  0  0  0
  3 10  1  0  0  0
 10 11  2  0  0  0
 11 12  1  0  0  0
 12  4  1  0  0  0
  7 13  1  0  0  0
 13 14  1  0  0  0
 14 15  1  0  0  0
 14 16  2  0  0  0
  9 17  1  0  0  0
 17 18  1  0  0  0
 17 19  2  0  0  0
  8 20  1  0  0  0
 20 21  1  0  0  0
 20 22  2  0  0  0
 11 23  1  0  0  0
 23 24  1  0  0  0
 24 25  1  0  0  0
 24 26  1  0  0  0
 24 27  1  0  0  0
  1 28  1  0  0  0
  2 29  1  0  0  0
  3 30  1  0  0  0
  4 31  1  0  0  0
  6 32  1  0  0  0
  7 33  1  0  0  0
  7 34  1  0  0  0
 15 35  1  0  0  0
 15 36  1  0  0  0
 15 37  1  0  0  0
 18 38  1  0  0  0
 18 39  1  0  0  0
 18 40  1  0  0  0
 21 41  1  0  0  0
 21 42  1  0  0  0
 21 43  1  0  0  0
 23 44  1  0  0  0
 23 45  1  0  0  0
M  END
> <Clean Energy>
22.4317

> <Forcefield>
MMFF

> <Chemical Formula>
C15H12FNO4S

> <ForcefieldBase>
MMFF

> <ForcefieldFFML>
<?xml version="1.0" encoding="UTF-8"?>
<!DOCTYPE ffml SYSTEM "Ffml.dtd">
<ffml version="1.0">
<forcefield name="C15H12FNO4S-MMFF" derivedFrom="MMFF" base="MMFF">
<atomTypes>
<atomType
 name="C100"
 element="C"
 mass="12.011"
 annotation=""/>
<atomType
 name="O101"
 element="O"
 mass="16"
 annotation=""/>
<atomType
 name="N102"
 element="N"
 mass="14.007"
 annotation=""/>
<atomType
 name="S103"
 element="S"
 mass="32.066"
 annotation=""/>
<atomType
 name="F104"
 element="F"
 mass="18.998"
 annotation=""/>
<atomType
 name="H105"
 element="H"
 mass="1.008"
 annotation=""/>
</atomTypes>
<parameters>
</parameters>
</forcefield>
</ffml>

> <Reference>
Knapp et al., 2007

$$$$
C9H12F3NO4S
  DSViewer          3D                             0

 30 31  0  0  0  0  0  0  0  0999 V2000
   20.4397  -18.3022   -0.2580 C   0  0  1  0  0  0
   21.8146  -18.0554    0.3935 C   0  0  1  0  0  0
   22.3714  -16.7930   -0.2371 C   0  0  2  0  0  0
   22.4884  -16.9999   -1.7330 C   0  0  1  0  0  0
   21.2169  -17.2295   -2.3511 O   0  0
   20.6291  -18.4433   -1.7999 C   0  0  2  0  0  0
   23.7097  -16.3686    0.2008 N   0  0
   24.3130  -15.6851   -0.7032 C   0  0
   23.3554  -15.5354   -2.1811 S   0  0
   25.6934  -15.1033   -0.5099 C   0  0
   19.2621  -18.6887   -2.4585 C   0  0
   21.6786  -17.8942    1.8062 O   0  0
   19.8632  -19.4965    0.2729 O   0  0
   19.4346  -18.8270   -3.8700 O   0  0
   26.1711  -14.3387   -1.7644 C   0  0
   27.4317  -13.8300   -1.5296 F   0  0
   26.2241  -15.1965   -2.8449 F   0  0
   25.3066  -13.2970   -2.0356 F   0  0
   19.7825  -17.4581   -0.0490 H   0  0
   22.4772  -18.8946    0.1818 H   0  0
   21.6723  -15.9771   -0.0540 H   0  0
   23.1309  -17.8603   -1.9199 H   0  0
   21.2859  -19.2883   -2.0067 H   0  0
   25.6718  -14.4160    0.3359 H   0  0
   26.3924  -15.9136   -0.3025 H   0  0
   18.8222  -19.6007   -2.0547 H   0  0
   18.6029  -17.8452   -2.2535 H   0  0
   21.0548  -17.0737    2.0068 H   0  0
   20.4950  -20.3105    0.0709 H   0  0
   19.8587  -17.9487   -4.2589 H   0  0
  1  2  1  0  0  0
  2  3  1  0  0  0
  3  4  1  0  0  0
  4  5  1  0  0  0
  5  6  1  0  0  0
  6  1  1  0  0  0
  3  7  1  0  0  0
  7  8  2  0  0  0
  8  9  1  0  0  0
  9  4  1  0  0  0
  8 10  1  0  0  0
  6 11  1  0  0  0
  2 12  1  0  0  0
  1 13  1  0  0  0
 11 14  1  0  0  0
 10 15  1  0  0  0
 15 16  1  0  0  0
 15 17  1  0  0  0
 15 18  1  0  0  0
  1 19  1  0  0  0
  2 20  1  0  0  0
  3 21  1  0  0  0
  4 22  1  0  0  0
  6 23  1  0  0  0
 10 24  1  0  0  0
 10 25  1  0  0  0
 11 26  1  0  0  0
 11 27  1  0  0  0
 12 28  1  0  0  0
 13 29  1  0  0  0
 14 30  1  0  0  0
M  END
> <Clean Energy>
18.5199

> <Forcefield>
MMFF

> <Chemical Formula>
C9H12F3NO4S

> <ForcefieldBase>
MMFF

> <ForcefieldFFML>
<?xml version="1.0" encoding="UTF-8"?>
<!DOCTYPE ffml SYSTEM "Ffml.dtd">
<ffml version="1.0">
<forcefield name="C9H12F3NO4S-MMFF" derivedFrom="MMFF" base="MMFF">
<atomTypes>
<atomType
 name="C100"
 element="C"
 mass="12.011"
 annotation=""/>
<atomType
 name="O101"
 element="O"
 mass="16"
 annotation=""/>
<atomType
 name="N102"
 element="N"
 mass="14.007"
 annotation=""/>
<atomType
 name="S103"
 element="S"
 mass="32.066"
 annotation=""/>
<atomType
 name="F104"
 element="F"
 mass="18.998"
 annotation=""/>
<atomType
 name="H105"
 element="H"
 mass="1.008"
 annotation=""/>
</atomTypes>
<parameters>
</parameters>
</forcefield>
</ffml>

> <Reference>
Knapp et al., 2007

$$$$
C17H19NO8S
  DSViewer          3D                             0

 52 53  0  0  0  0  0  0  0  0999 V2000
   21.8755  -18.2908    3.8439 C   0  0  1  0  0  0
   23.2254  -17.8846    4.6243 C   0  0  1  0  0  0
   23.6979  -16.5082    3.9918 C   0  0  2  0  0  0
   23.8682  -16.6850    2.4825 C   0  0  1  0  0  0
   22.6619  -17.0910    1.8379 O   0  0
   22.1874  -18.3683    2.3175 C   0  0  2  0  0  0
   20.8891  -18.6926    1.5271 C   0  0
   22.9617  -17.7415    6.0532 O   0  0
   21.3394  -19.5944    4.2310 O   0  0
   25.0321  -15.8168    4.4186 N   0  0
   25.6180  -14.9510    3.3245 C   0  0  2  0  0  0
   24.3521  -15.0493    2.0604 S   0  0
   20.3062  -19.9370    1.9201 O   0  0
   19.1247  -20.1337    1.1972 C   0  0
   18.2954  -21.3629    1.4295 C   0  0
   18.7562  -19.2913    0.3695 O   0  0
   20.7256  -19.6547    5.4882 C   0  0
   20.1667  -20.9632    5.9692 C   0  0
   20.5995  -18.6431    6.1859 O   0  0
   26.9601  -15.4569    2.7312 C   0  0
   25.6059  -15.9058    5.7939 C   0  0
   25.0034  -16.5392    6.6354 O   0  0
   26.9308  -15.2861    6.3185 C   0  0
   23.5742  -18.7288    6.8734 C   0  0
   24.3657  -19.5463    6.3946 O   0  0
   23.3484  -18.6866    8.3621 C   0  0
   27.3930  -16.1008    7.3339 F   0  0
   27.9231  -15.0927    5.4047 F   0  0
   26.6382  -14.0707    6.8896 F   0  0
   27.5176  -14.3637    1.7731 C   0  0
   28.7529  -14.7450    1.2965 F   0  0
   26.6690  -14.1483    0.7107 F   0  0
   27.6552  -13.1861    2.4886 F   0  0
   21.1180  -17.5263    4.0165 H   0  0
   23.9884  -18.6462    4.4638 H   0  0
   22.8949  -15.7873    4.1458 H   0  0
   24.6722  -17.3892    2.2682 H   0  0
   22.9374  -19.1368    2.1305 H   0  0
   20.1652  -17.8967    1.7023 H   0  0
   21.1289  -18.7389    0.4648 H   0  0
   25.7235  -13.9235    3.6729 H   0  0
   17.4206  -21.3398    0.7798 H   0  0
   17.9735  -21.3933    2.4705 H   0  0
   18.8890  -22.2497    1.2072 H   0  0
   19.7291  -20.8303    6.9586 H   0  0
   20.9658  -21.7027    6.0222 H   0  0
   19.3989  -21.3076    5.2762 H   0  0
   27.6725  -15.6391    3.5357 H   0  0
   26.7925  -16.3807    2.1775 H   0  0
   23.8858  -19.5085    8.8350 H   0  0
   22.2829  -18.7817    8.5713 H   0  0
   23.7130  -17.7390    8.7586 H   0  0
  1  2  1  0  0  0
  2  3  1  0  0  0
  3  4  1  0  0  0
  4  5  1  0  0  0
  5  6  1  0  0  0
  6  1  1  0  0  0
  6  7  1  0  0  0
  2  8  1  0  0  0
  1  9  1  0  0  0
  3 10  1  0  0  0
 10 11  1  0  0  0
 11 12  1  0  0  0
 12  4  1  0  0  0
  7 13  1  0  0  0
 13 14  1  0  0  0
 14 15  1  0  0  0
 14 16  2  0  0  0
  9 17  1  0  0  0
 17 18  1  0  0  0
 17 19  2  0  0  0
 11 20  1  0  0  0
 10 21  1  0  0  0
 21 22  2  0  0  0
 21 23  1  0  0  0
  8 24  1  0  0  0
 24 25  2  0  0  0
 24 26  1  0  0  0
 23 27  1  0  0  0
 23 28  1  0  0  0
 23 29  1  0  0  0
 20 30  1  0  0  0
 30 31  1  0  0  0
 30 32  1  0  0  0
 30 33  1  0  0  0
  1 34  1  0  0  0
  2 35  1  0  0  0
  3 36  1  0  0  0
  4 37  1  0  0  0
  6 38  1  0  0  0
  7 39  1  0  0  0
  7 40  1  0  0  0
 11 41  1  0  0  0
 15 42  1  0  0  0
 15 43  1  0  0  0
 15 44  1  0  0  0
 18 45  1  0  0  0
 18 46  1  0  0  0
 18 47  1  0  0  0
 20 48  1  0  0  0
 20 49  1  0  0  0
 26 50  1  0  0  0
 26 51  1  0  0  0
 26 52  1  0  0  0
M  END
> <Clean Energy>
61.6537

> <Forcefield>
MMFF

> <Chemical Formula>
C17H19NO8S

> <ForcefieldBase>
MMFF

> <ForcefieldFFML>
<?xml version="1.0" encoding="UTF-8"?>
<!DOCTYPE ffml SYSTEM "Ffml.dtd">
<ffml version="1.0">
<forcefield name="C17H19NO8S-MMFF" derivedFrom="MMFF" base="MMFF">
<atomTypes>
<atomType
 name="C100"
 element="C"
 mass="12.011"
 annotation=""/>
<atomType
 name="O101"
 element="O"
 mass="16"
 annotation=""/>
<atomType
 name="N102"
 element="N"
 mass="14.007"
 annotation=""/>
<atomType
 name="S103"
 element="S"
 mass="32.066"
 annotation=""/>
<atomType
 name="F104"
 element="F"
 mass="18.998"
 annotation=""/>
<atomType
 name="H105"
 element="H"
 mass="1.008"
 annotation=""/>
</atomTypes>
<parameters>
</parameters>
</forcefield>
</ffml>

> <Reference>
Knapp et al., 2007

$$$$
C17H22F3NO8S2
  DSViewer          3D                             0

 53 54  0  0  0  0  0  0  0  0999 V2000
   21.5525  -18.5897    4.0419 C   0  0  1  0  0  0
   22.9119  -18.3340    4.8212 C   0  0  1  0  0  0
   23.5501  -16.9746    4.1864 C   0  0  2  0  0  0
   23.7291  -17.2986    2.6854 C   0  0  1  0  0  0
   22.4943  -17.5405    2.0193 O   0  0
   21.8715  -18.7216    2.5244 C   0  0  2  0  0  0
   20.5682  -18.9512    1.7208 C   0  0
   22.6034  -18.3037    6.2365 O   0  0
   20.9158  -19.8518    4.4351 O   0  0
   24.9242  -16.3995    4.6133 N   0  0
   25.7900  -16.0105    3.4187 C   0  0  1  0  0  0
   24.5935  -15.9177    2.0968 S   0  0
   19.9027  -20.1454    2.1391 O   0  0
   18.7501  -20.3250    1.3759 C   0  0
   17.8651  -21.5119    1.6212 C   0  0
   18.4560  -19.5088    0.4945 O   0  0
   20.3360  -19.9007    5.7166 C   0  0
   19.7100  -21.1808    6.1867 C   0  0
   20.2991  -18.9037    6.4452 O   0  0
   26.5294  -14.6434    3.5043 C   0  0
   25.2875  -16.1098    6.0107 C   0  0
   24.4153  -16.2691    6.8716 O   0  0
   26.7194  -15.9216    6.5661 C   0  0
   23.6367  -18.7507    7.0669 C   0  0
   24.7112  -19.1301    6.5891 O   0  0
   23.4250  -18.7758    8.5563 C   0  0
   26.8074  -16.5543    7.7849 F   0  0
   27.7127  -16.3889    5.7210 F   0  0
   26.9224  -14.5769    6.8027 F   0  0
   27.4940  -14.3442    2.0089 S   0  0
   28.4798  -12.8432    2.2432 C   0  0
   20.8663  -17.7591    4.2074 H   0  0
   23.5902  -19.1649    4.6270 H   0  0
   22.8091  -16.1801    4.2747 H   0  0
   24.3624  -18.1803    2.5871 H   0  0
   22.5388  -19.5699    2.3723 H   0  0
   19.9025  -18.1018    1.8740 H   0  0
   20.8141  -19.0344    0.6621 H   0  0
   26.5074  -16.8043    3.2104 H   0  0
   17.0194  -21.4834    0.9342 H   0  0
   17.4995  -21.4872    2.6478 H   0  0
   18.4327  -22.4285    1.4601 H   0  0
   19.3126  -21.0436    7.1923 H   0  0
   20.4613  -21.9705    6.1982 H   0  0
   18.9008  -21.4594    5.5117 H   0  0
   25.7950  -13.8464    3.6216 H   0  0
   27.1978  -14.6517    4.3653 H   0  0
   24.3249  -19.1486    9.0455 H   0  0
   22.5858  -19.4296    8.7936 H   0  0
   23.2109  -17.7673    8.9104 H   0  0
   29.0681  -12.6506    1.3461 H   0  0
   29.1483  -12.9761    3.0939 H   0  0
   27.8172  -11.9983    2.4309 H   0  0
  1  2  1  0  0  0
  2  3  1  0  0  0
  3  4  1  0  0  0
  4  5  1  0  0  0
  5  6  1  0  0  0
  6  1  1  0  0  0
  6  7  1  0  0  0
  2  8  1  0  0  0
  1  9  1  0  0  0
  3 10  1  0  0  0
 10 11  1  0  0  0
 11 12  1  0  0  0
 12  4  1  0  0  0
  7 13  1  0  0  0
 13 14  1  0  0  0
 14 15  1  0  0  0
 14 16  2  0  0  0
  9 17  1  0  0  0
 17 18  1  0  0  0
 17 19  2  0  0  0
 11 20  1  0  0  0
 10 21  1  0  0  0
 21 22  2  0  0  0
 21 23  1  0  0  0
  8 24  1  0  0  0
 24 25  2  0  0  0
 24 26  1  0  0  0
 23 27  1  0  0  0
 23 28  1  0  0  0
 23 29  1  0  0  0
 20 30  1  0  0  0
 30 31  1  0  0  0
  1 32  1  0  0  0
  2 33  1  0  0  0
  3 34  1  0  0  0
  4 35  1  0  0  0
  6 36  1  0  0  0
  7 37  1  0  0  0
  7 38  1  0  0  0
 11 39  1  0  0  0
 15 40  1  0  0  0
 15 41  1  0  0  0
 15 42  1  0  0  0
 18 43  1  0  0  0
 18 44  1  0  0  0
 18 45  1  0  0  0
 20 46  1  0  0  0
 20 47  1  0  0  0
 26 48  1  0  0  0
 26 49  1  0  0  0
 26 50  1  0  0  0
 31 51  1  0  0  0
 31 52  1  0  0  0
 31 53  1  0  0  0
M  END
> <Clean Energy>
57.3323

> <Forcefield>
MMFF

> <Chemical Formula>
C17H22F3NO8S2

> <ForcefieldBase>
MMFF

> <ForcefieldFFML>
<?xml version="1.0" encoding="UTF-8"?>
<!DOCTYPE ffml SYSTEM "Ffml.dtd">
<ffml version="1.0">
<forcefield name="C17H22F3NO8S2-MMFF" derivedFrom="MMFF" base="MMFF">
<atomTypes>
<atomType
 name="C100"
 element="C"
 mass="12.011"
 annotation=""/>
<atomType
 name="O101"
 element="O"
 mass="16"
 annotation=""/>
<atomType
 name="N102"
 element="N"
 mass="14.007"
 annotation=""/>
<atomType
 name="S103"
 element="S"
 mass="32.066"
 annotation=""/>
<atomType
 name="F104"
 element="F"
 mass="18.998"
 annotation=""/>
<atomType
 name="H105"
 element="H"
 mass="1.008"
 annotation=""/>
</atomTypes>
<parameters>
</parameters>
</forcefield>
</ffml>

> <Reference>
Knapp et al., 2007

$$$$
C9H17NO4S2
  DSViewer          3D                             0

 33 34  0  0  0  0  0  0  0  0999 V2000
   21.8873  -17.8912    2.5264 C   0  0  1  0  0  0
   23.2599  -17.7350    3.2017 C   0  0  1  0  0  0
   23.9161  -16.5067    2.5920 C   0  0  2  0  0  0
   24.0595  -16.7286    1.0996 C   0  0  1  0  0  0
   22.7865  -16.8848    0.4548 O   0  0
   22.1057  -18.0507    0.9923 C   0  0  2  0  0  0
   20.7431  -18.2075    0.2987 C   0  0
   23.1119  -17.5715    4.6130 O   0  0
   21.2227  -19.0449    3.0437 O   0  0
   25.3031  -16.2382    3.0586 N   0  0
   25.6787  -15.0168    2.2696 C   0  0  2  0  0  0
   24.9767  -15.2895    0.6260 S   0  0
   27.1916  -14.7441    2.2517 C   0  0
   27.5201  -13.2611    1.2692 S   0  0
   29.2996  -12.9343    1.2459 C   0  0
   20.9433  -18.3630   -1.1074 O   0  0
   21.2828  -17.0047    2.7188 H   0  0
   23.8701  -18.6149    2.9976 H   0  0
   23.2931  -15.6309    2.7735 H   0  0
   24.6654  -17.6173    0.9231 H   0  0
   22.7095  -18.9386    0.8050 H   0  0
   20.2332  -19.0865    0.6929 H   0  0
   20.1364  -17.3212    0.4840 H   0  0
   22.5382  -16.7139    4.8081 H   0  0
   21.8029  -19.8989    2.8523 H   0  0
   25.9524  -17.0586    2.8342 H   0  0
   25.1813  -14.1554    2.7153 H   0  0
   27.5460  -14.5914    3.2711 H   0  0
   27.7096  -15.5954    1.8101 H   0  0
   29.4977  -12.0408    0.6540 H   0  0
   29.8199  -13.7845    0.8047 H   0  0
   29.6547  -12.7805    2.2649 H   0  0
   21.4350  -17.5164   -1.4871 H   0  0
  1  2  1  0  0  0
  2  3  1  0  0  0
  3  4  1  0  0  0
  4  5  1  0  0  0
  5  6  1  0  0  0
  6  1  1  0  0  0
  6  7  1  0  0  0
  2  8  1  0  0  0
  1  9  1  0  0  0
  3 10  1  0  0  0
 10 11  1  0  0  0
 11 12  1  0  0  0
 12  4  1  0  0  0
 11 13  1  0  0  0
 13 14  1  0  0  0
 14 15  1  0  0  0
  7 16  1  0  0  0
  1 17  1  0  0  0
  2 18  1  0  0  0
  3 19  1  0  0  0
  4 20  1  0  0  0
  6 21  1  0  0  0
  7 22  1  0  0  0
  7 23  1  0  0  0
  8 24  1  0  0  0
  9 25  1  0  0  0
 10 26  1  0  0  0
 11 27  1  0  0  0
 13 28  1  0  0  0
 13 29  1  0  0  0
 15 30  1  0  0  0
 15 31  1  0  0  0
 15 32  1  0  0  0
 16 33  1  0  0  0
M  END
> <Clean Energy>
22.2466

> <Forcefield>
MMFF

> <Chemical Formula>
C9H17NO4S2

> <ForcefieldBase>
MMFF

> <ForcefieldFFML>
<?xml version="1.0" encoding="UTF-8"?>
<!DOCTYPE ffml SYSTEM "Ffml.dtd">
<ffml version="1.0">
<forcefield name="C9H17NO4S2-MMFF" derivedFrom="MMFF" base="MMFF">
<atomTypes>
<atomType
 name="C100"
 element="C"
 mass="12.011"
 annotation=""/>
<atomType
 name="O101"
 element="O"
 mass="16"
 annotation=""/>
<atomType
 name="N102"
 element="N"
 mass="14.007"
 annotation=""/>
<atomType
 name="S103"
 element="S"
 mass="32.066"
 annotation=""/>
<atomType
 name="H104"
 element="H"
 mass="1.008"
 annotation=""/>
</atomTypes>
<parameters>
</parameters>
</forcefield>
</ffml>

> <Reference>
Knapp et al., 2007

$$$$
3 Stubbs et al., 2013
  DSViewer          3D                             0

 28 28  0  0  0  0  0  0  0  0999 V2000
   25.0735  -15.4197   -1.6174 N   0  0
   25.8564  -13.9656   -2.0132 Cl  0  0
   24.9479  -15.4682   -0.5559 H   0  0
   21.7074  -16.9137   -2.4735 C   0  0  1  0  0  0
   23.0786  -16.8177   -1.8103 C   0  0  1  0  0  0
   23.7443  -15.5188   -2.2630 C   0  0  2  0  0  0
   23.8642  -15.5565   -3.8132 C   0  0  1  0  0  0
   22.5531  -15.6816   -4.4066 O   0  0
   21.9012  -16.9023   -3.9979 C   0  0  2  0  0  0
   20.5293  -16.9964   -4.6821 C   0  0
   21.0636  -18.1255   -2.0769 O   0  0
   22.9314  -16.8174   -0.3898 O   0  0
   24.4680  -14.3568   -4.2966 O   0  0
   20.7074  -16.9897   -6.0996 O   0  0
   24.5731  -14.4148   -5.7209 C   0  0
   21.0969  -16.0611   -2.1761 H   0  0
   23.6910  -17.6668   -2.1137 H   0  0
   23.1292  -14.6698   -1.9647 H   0  0
   24.4750  -16.4104   -4.1064 H   0  0
   22.5123  -17.7556   -4.2921 H   0  0
   20.0354  -17.9204   -4.3817 H   0  0
   19.9167  -16.1441   -4.3881 H   0  0
   21.6495  -18.9459   -2.3702 H   0  0
   22.3471  -15.9952   -0.0981 H   0  0
   21.1839  -16.0998   -6.3888 H   0  0
   25.0343  -13.4985   -6.0893 H   0  0
   23.5789  -14.5206   -6.1550 H   0  0
   25.1864  -15.2697   -6.0059 H   0  0
  1  2  1  0  0  0
  1  3  1  0  0  0
  4  5  1  0  0  0
  5  6  1  0  0  0
  6  7  1  0  0  0
  7  8  1  0  0  0
  8  9  1  0  0  0
  9  4  1  0  0  0
  9 10  1  0  0  0
  4 11  1  0  0  0
  5 12  1  0  0  0
  7 13  1  0  0  0
 10 14  1  0  0  0
 13 15  1  0  0  0
  4 16  1  0  0  0
  5 17  1  0  0  0
  6 18  1  0  0  0
  7 19  1  0  0  0
  9 20  1  0  0  0
 10 21  1  0  0  0
 10 22  1  0  0  0
 11 23  1  0  0  0
 12 24  1  0  0  0
 14 25  1  0  0  0
 15 26  1  0  0  0
 15 27  1  0  0  0
 15 28  1  0  0  0
  6  1  1  0  0  0
M  END
> <Clean Energy>
-3.51741

> <Forcefield>
MMFF

> <Chemical Formula>
C7H16ClNO5

> <ForcefieldBase>
MMFF

> <Reference>
Stubbs et al., 2013

> <ForcefieldFFML>
<?xml version="1.0" encoding="UTF-8"?>
<!DOCTYPE ffml SYSTEM "Ffml.dtd">
<ffml version="1.0">
<forcefield name="3 Stubbs et al., 2013-MMFF" derivedFrom="MMFF" base="MMFF">
<atomTypes>
<atomType
 name="N100"
 element="N"
 mass="14.007"
 annotation=""/>
<atomType
 name="Cl101"
 element="Cl"
 mass="35.453"
 annotation=""/>
<atomType
 name="H102"
 element="H"
 mass="1.008"
 annotation=""/>
<atomType
 name="C103"
 element="C"
 mass="12.011"
 annotation=""/>
<atomType
 name="O104"
 element="O"
 mass="16"
 annotation=""/>
</atomTypes>
<parameters>
</parameters>
</forcefield>
</ffml>

$$$$
4 Stubbs et al., 2013
  SciTegic07212313593D

 28 28  0  0  0  0            999 V2000
   25.5015  -15.0115   -1.6607 N   0  0
   26.3046  -14.1988   -2.0438 N   0  3
   27.1007  -13.3955   -2.4210 N   0  5
   21.9420  -16.8048   -2.4225 C   0  0  1  0  0  0
   23.3520  -16.5678   -1.6871 C   0  0  1  0  0  0
   24.0876  -15.2147   -2.2558 C   0  0  2  0  0  0
   24.1782  -15.2881   -3.8277 C   0  0  1  0  0  0
   22.7846  -15.5010   -4.4168 O   0  0
   22.1216  -16.8019   -4.0038 C   0  0  2  0  0  0
   20.6742  -16.9420   -4.6834 C   0  0
   21.3507  -18.0736   -1.9819 O   0  0
   23.1148  -16.4594   -0.2468 O   0  0
   24.7687  -14.0032   -4.2831 O   0  0
   20.7156  -16.9273   -6.1371 O   0  0
   24.9672  -13.9258   -5.7124 C   0  0
   21.2672  -15.9939   -2.1485 H   0  0
   23.9970  -17.4261   -1.8752 H   0  0
   23.4757  -14.3535   -1.9875 H   0  0
   24.8284  -16.1132   -4.1186 H   0  0
   22.7484  -17.6423   -4.3021 H   0  0
   20.2303  -17.8835   -4.3598 H   0  0
   20.0528  -16.1121   -4.3470 H   0  0
   22.0000  -18.8640   -2.2191 H   0  0
   22.4726  -15.6506   -0.0572 H   0  0
   21.1323  -16.0216   -6.4667 H   0  0
   25.4013  -12.9592   -5.9677 H   0  0
   24.0089  -14.0385   -6.2195 H   0  0
   25.6414  -14.7215   -6.0297 H   0  0
  2  3  2  0
  1  2  2  0
  4  5  1  0
  5  6  1  0
  6  7  1  0
  7  8  1  0
  8  9  1  0
  9  4  1  0
  9 10  1  0
  4 11  1  0
  5 12  1  0
  7 13  1  0
 10 14  1  0
 13 15  1  0
  4 16  1  0
  5 17  1  0
  6 18  1  0
  7 19  1  0
  9 20  1  0
 10 21  1  0
 10 22  1  0
 11 23  1  0
 12 24  1  0
 14 25  1  0
 15 26  1  0
 15 27  1  0
 15 28  1  0
  6  1  1  0
M  CHG  2   2   1   3  -1
M  END
> <Name>
4 Stubbs et al., 2013

> <Clean Energy>
10.8325214385986

> <Forcefield>
MMFF

> <Chemical Formula>
C7H13N3O5

> <ForcefieldBase>
MMFF

> <Reference>
Stubbs et al., 2013

> <ForcefieldFFML>
<?xml version="1.0" encoding="UTF-8"?>
<!DOCTYPE ffml SYSTEM "Ffml.dtd">
<ffml version="1.0">
<forcefield name="4 Stubbs et al., 2013-MMFF" derivedFrom="MMFF" base="MMFF">
<atomTypes>
<atomType
 name="N100"
 element="N"
 mass="14.007"
 annotation=""/>
<atomType
 name="C101"
 element="C"
 mass="12.011"
 annotation=""/>
<atomType
 name="O102"
 element="O"
 mass="16"
 annotation=""/>
<atomType
 name="H103"
 element="H"
 mass="1.008"
 annotation=""/>
</atomTypes>
<parameters>
</parameters>
</forcefield>
</ffml>

$$$$
5 Stubbs et al., 2013
  SciTegic07212313593D

 37 37  0  0  0  0            999 V2000
   24.7569  -15.7568   -1.0966 N   0  0
   25.5416  -14.9196   -1.4865 N   0  3
   26.3185  -14.0950   -1.8685 N   0  5
   21.0546  -17.4564   -1.9225 C   0  0  1  0  0  0
   22.4948  -17.3699   -1.0956 C   0  0  1  0  0  0
   23.3260  -15.9626   -1.6619 C   0  0  2  0  0  0
   23.4425  -15.9985   -3.2429 C   0  0  1  0  0  0
   22.1239  -16.1423   -3.8122 O   0  0
   21.3489  -17.3328   -3.4444 C   0  0  2  0  0  0
   20.0062  -17.0358   -4.1129 C   0  0
   20.2229  -18.7532   -1.5224 O   0  0
   22.2967  -17.3220    0.4507 O   0  0
   24.0331  -14.7095   -3.7079 O   0  0
   19.9721  -17.5632   -6.1274 I   0  0
   24.2011  -14.6214   -5.1504 C   0  0
   21.3894  -18.2999    1.1447 C   0  0
   21.3667  -18.4149    2.6362 C   0  0
   20.6376  -19.0674    0.5598 O   0  0
   19.0663  -19.5678   -2.1461 C   0  0
   18.6042  -19.6616   -3.5717 C   0  0
   18.4439  -20.3211   -1.3978 O   0  0
   20.4618  -16.5883   -1.6345 H   0  0
   23.0908  -18.2484   -1.3426 H   0  0
   22.7307  -15.0909   -1.3903 H   0  0
   24.0747  -16.8311   -3.5514 H   0  0
   21.8006  -18.2425   -3.8400 H   0  0
   19.2277  -17.5948   -3.5937 H   0  0
   19.8045  -15.9678   -4.0294 H   0  0
   24.6354  -13.6554   -5.4078 H   0  0
   23.2309  -14.7242   -5.6366 H   0  0
   24.8630  -15.4186   -5.4890 H   0  0
   20.6453  -19.1767    2.9315 H   0  0
   21.0811  -17.4569    3.0707 H   0  0
   22.3573  -18.6950    2.9946 H   0  0
   17.7529  -20.3393   -3.6344 H   0  0
   19.4158  -20.0401   -4.1931 H   0  0
   18.3080  -18.6734   -3.9239 H   0  0
  2  3  2  0
  1  2  2  0
  4  5  1  0
  5  6  1  0
  6  7  1  0
  7  8  1  0
  8  9  1  0
  9  4  1  0
  9 10  1  0
  4 11  1  0
  5 12  1  0
  7 13  1  0
 10 14  1  0
 13 15  1  0
 12 16  1  0
 16 17  1  0
 16 18  2  0
 11 19  1  0
 19 20  1  0
 19 21  2  0
  4 22  1  0
  5 23  1  0
  6 24  1  0
  7 25  1  0
  9 26  1  0
 10 27  1  0
 10 28  1  0
 15 29  1  0
 15 30  1  0
 15 31  1  0
 17 32  1  0
 17 33  1  0
 17 34  1  0
 20 35  1  0
 20 36  1  0
 20 37  1  0
  6  1  1  0
M  CHG  2   2   1   3  -1
M  END
> <Name>
5 Stubbs et al., 2013

> <Clean Energy>
74.9967651367188

> <Forcefield>
MMFF

> <Chemical Formula>
C11H16IN3O6

> <ForcefieldBase>
MMFF

> <Reference>
Stubbs et al., 2013

> <ForcefieldFFML>
<?xml version="1.0" encoding="UTF-8"?>
<!DOCTYPE ffml SYSTEM "Ffml.dtd">
<ffml version="1.0">
<forcefield name="5 Stubbs et al., 2013-MMFF" derivedFrom="MMFF" base="MMFF">
<atomTypes>
<atomType
 name="N100"
 element="N"
 mass="14.007"
 annotation=""/>
<atomType
 name="C101"
 element="C"
 mass="12.011"
 annotation=""/>
<atomType
 name="O102"
 element="O"
 mass="16"
 annotation=""/>
<atomType
 name="I103"
 element="I"
 mass="126.905"
 annotation=""/>
<atomType
 name="H104"
 element="H"
 mass="1.008"
 annotation=""/>
</atomTypes>
<parameters>
</parameters>
</forcefield>
</ffml>

$$$$
2 Stubbs et al., 2013
  SciTegic07212313593D

 35 35  0  0  0  0            999 V2000
   27.6380  -13.6283   -0.6934 N   0  0
   28.4488  -12.8264   -1.1035 N   0  3
   29.2514  -12.0363   -1.5051 N   0  5
   24.0410  -15.5203   -1.5958 C   0  0  1  0  0  0
   25.4433  -15.3008   -0.7323 C   0  0  1  0  0  0
   26.2159  -13.8734   -1.2895 C   0  0  2  0  0  0
   26.4055  -13.9442   -2.8421 C   0  0  1  0  0  0
   25.2451  -14.2557   -3.5804 O   0  0
   24.3697  -15.2722   -3.1278 C   0  0
   23.6041  -15.7071   -4.0983 C   0  0
   23.2777  -16.8466   -1.2311 O   0  0
   25.2163  -15.2525    0.8155 O   0  0
   26.9412  -12.6411   -3.3393 O   0  0
   27.1662  -12.5881   -4.7778 C   0  0
   24.3141  -16.2347    1.5048 C   0  0
   24.2915  -16.3522    3.0000 C   0  0
   23.5570  -16.9935    0.9140 O   0  0
   21.9552  -17.4263   -1.7665 C   0  0
   21.1587  -17.0086   -2.9723 C   0  0
   21.4234  -18.3282   -1.1115 O   0  0
   23.3796  -14.7064   -1.2989 H   0  0
   26.1022  -16.1422   -0.9467 H   0  0
   25.5841  -13.0174   -1.0522 H   0  0
   27.1500  -14.7122   -3.0520 H   0  0
   23.6974  -15.2827   -5.0979 H   0  0
   22.8741  -16.4933   -3.9059 H   0  0
   27.5549  -11.6067   -5.0493 H   0  0
   26.2255  -12.7629   -5.2999 H   0  0
   27.8869  -13.3550   -5.0618 H   0  0
   23.5735  -17.1178    3.2939 H   0  0
   24.0012  -15.3962    3.4358 H   0  0
   25.2832  -16.6282    3.3583 H   0  0
   20.2713  -17.6357   -3.0572 H   0  0
   21.7692  -17.1208   -3.8683 H   0  0
   20.8576  -15.9664   -2.8664 H   0  0
  2  3  2  0
  1  2  2  0
  4  5  1  0
  5  6  1  0
  6  7  1  0
  7  8  1  0
  8  9  1  0
  9  4  1  0
  9 10  2  0
  4 11  1  0
  5 12  1  0
  7 13  1  0
 13 14  1  0
 12 15  1  0
 15 16  1  0
 15 17  2  0
 11 18  1  0
 18 19  1  0
 18 20  2  0
  4 21  1  0
  5 22  1  0
  6 23  1  0
  7 24  1  0
 10 25  1  0
 10 26  1  0
 14 27  1  0
 14 28  1  0
 14 29  1  0
 16 30  1  0
 16 31  1  0
 16 32  1  0
 19 33  1  0
 19 34  1  0
 19 35  1  0
  6  1  1  0
M  CHG  2   2   1   3  -1
M  END
> <Name>
2 Stubbs et al., 2013

> <Clean Energy>
82.6062622070312

> <Forcefield>
MMFF

> <Chemical Formula>
C11H15N3O6

> <ForcefieldBase>
MMFF

> <Reference>
Stubbs et al., 2013

> <ForcefieldFFML>
<?xml version="1.0" encoding="UTF-8"?>
<!DOCTYPE ffml SYSTEM "Ffml.dtd">
<ffml version="1.0">
<forcefield name="2 Stubbs et al., 2013-MMFF" derivedFrom="MMFF" base="MMFF">
<atomTypes>
<atomType
 name="N100"
 element="N"
 mass="14.007"
 annotation=""/>
<atomType
 name="C101"
 element="C"
 mass="12.011"
 annotation=""/>
<atomType
 name="O102"
 element="O"
 mass="16"
 annotation=""/>
<atomType
 name="H103"
 element="H"
 mass="1.008"
 annotation=""/>
</atomTypes>
<parameters>
</parameters>
</forcefield>
</ffml>

$$$$
6 Stubbs et al., 2013
  SciTegic07212313593D

 40 40  0  0  0  0            999 V2000
   23.3063  -16.9452    1.9737 C   0  0  1  0  0  0
   24.5274  -16.6755    2.9210 C   0  0  1  0  0  0
   25.1366  -15.2930    2.5038 C   0  0  2  0  0  0
   25.6593  -15.4841    1.0768 C   0  0  1  0  0  0
   24.7039  -15.8961    0.0849 O   0  0
   23.7117  -16.7981    0.4778 C   0  0
   22.9865  -17.3353   -0.5020 C   0  0
   22.6554  -18.2374    2.2825 O   0  0
   24.0496  -16.6192    4.2995 O   0  0
   26.3704  -14.7944    3.2221 N   0  0
   26.2638  -14.2745    0.6165 O   0  0
   26.8298  -14.4863   -0.6784 C   0  0
   23.6625  -17.8548    4.8735 C   0  0
   23.1193  -17.8769    6.2728 C   0  0
   23.8108  -18.9200    4.2646 O   0  0
   21.2647  -18.4602    1.9551 C   0  0
   20.3353  -17.3783    1.4319 C   0  0
   20.7837  -19.5718    2.2008 O   0  0
   27.0314  -15.0868    4.4888 C   0  0
   28.3654  -14.4401    4.7178 O   0  0
   26.4885  -15.9204    5.6091 C   0  0
   22.5717  -16.1663    2.1783 H   0  0
   25.2716  -17.4644    2.8114 H   0  0
   24.3624  -14.5258    2.5171 H   0  0
   26.4391  -16.2447    1.1143 H   0  0
   23.1844  -17.0630   -1.5387 H   0  0
   22.1952  -18.0471   -0.2670 H   0  0
   26.8855  -14.0414    2.6631 H   0  0
   27.2910  -13.5631   -1.0293 H   0  0
   26.0459  -14.7872   -1.3734 H   0  0
   27.5850  -15.2703   -0.6216 H   0  0
   22.8743  -18.9016    6.5519 H   0  0
   22.2205  -17.2622    6.3239 H   0  0
   23.8680  -17.4828    6.9600 H   0  0
   19.3444  -17.8000    1.2637 H   0  0
   20.7265  -16.9853    0.4934 H   0  0
   20.2674  -16.5723    2.1626 H   0  0
   27.2138  -15.9544    6.4220 H   0  0
   26.2976  -16.9319    5.2506 H   0  0
   25.5583  -15.4821    5.9710 H   0  0
  1  2  1  0
  2  3  1  0
  3  4  1  0
  4  5  1  0
  5  6  1  0
  6  1  1  0
  6  7  2  0
  1  8  1  0
  2  9  1  0
  3 10  1  0
  4 11  1  0
 11 12  1  0
  9 13  1  0
 13 14  1  0
 13 15  2  0
  8 16  1  0
 16 17  1  0
 16 18  2  0
 10 19  1  0
 19 20  2  0
 19 21  1  0
  1 22  1  0
  2 23  1  0
  3 24  1  0
  4 25  1  0
  7 26  1  0
  7 27  1  0
 10 28  1  0
 12 29  1  0
 12 30  1  0
 12 31  1  0
 14 32  1  0
 14 33  1  0
 14 34  1  0
 17 35  1  0
 17 36  1  0
 17 37  1  0
 21 38  1  0
 21 39  1  0
 21 40  1  0
M  END
> <Name>
6 Stubbs et al., 2013

> <Clean Energy>
50.6442070007324

> <Forcefield>
MMFF

> <Chemical Formula>
C13H19NO7

> <ForcefieldBase>
MMFF

> <Reference>
Stubbs et al., 2013

> <ForcefieldFFML>
<?xml version="1.0" encoding="UTF-8"?>
<!DOCTYPE ffml SYSTEM "Ffml.dtd">
<ffml version="1.0">
<forcefield name="6 Stubbs et al., 2013-MMFF" derivedFrom="MMFF" base="MMFF">
<atomTypes>
<atomType
 name="C100"
 element="C"
 mass="12.011"
 annotation=""/>
<atomType
 name="O101"
 element="O"
 mass="16"
 annotation=""/>
<atomType
 name="N102"
 element="N"
 mass="14.007"
 annotation=""/>
<atomType
 name="H103"
 element="H"
 mass="1.008"
 annotation=""/>
</atomTypes>
<parameters>
</parameters>
</forcefield>
</ffml>

$$$$
7 Stubbs et al., 2013
  SciTegic07212313593D

 43 43  0  0  0  0            999 V2000
   22.4160  -17.6993    2.3786 C   0  0  1  0  0  0
   23.6220  -17.4547    3.3525 C   0  0  1  0  0  0
   24.2534  -16.0719    2.9701 C   0  0  2  0  0  0
   24.7991  -16.2464    1.5478 C   0  0  1  0  0  0
   23.8531  -16.6305    0.5315 O   0  0
   22.8479  -17.5291    0.8966 C   0  0
   22.1268  -18.0421   -0.1059 C   0  0
   21.7567  -18.9914    2.6607 O   0  0
   23.1115  -17.4191    4.7173 O   0  0
   25.4843  -15.6108    3.7235 N   0  0
   25.4268  -15.0381    1.1145 O   0  0
   26.0089  -15.2377   -0.1757 C   0  0
   22.7045  -18.6575    5.2683 C   0  0
   22.1218  -18.6908    6.6515 C   0  0
   22.8640  -19.7173    4.6521 O   0  0
   20.3706  -19.2044    2.3169 C   0  0
   19.4506  -18.1131    1.8003 C   0  0
   19.8838  -20.3177    2.5456 O   0  0
   26.0380  -15.8312    5.0567 C   0  0
   27.3707  -15.2025    5.3371 O   0  0
   25.3840  -16.6005    6.1779 C   0  0
   26.2819  -16.6377    7.4328 C   0  0
   21.6822  -16.9199    2.5842 H   0  0
   24.3604  -18.2494    3.2462 H   0  0
   23.4902  -15.2937    2.9863 H   0  0
   25.5681  -17.0180    1.5859 H   0  0
   22.3403  -17.7522   -1.1348 H   0  0
   21.3256  -18.7501    0.1057 H   0  0
   26.0995  -14.9643    3.1333 H   0  0
   26.4875  -14.3157   -0.5055 H   0  0
   25.2311  -15.5171   -0.8864 H   0  0
   26.7525  -16.0328   -0.1203 H   0  0
   21.8656  -19.7172    6.9138 H   0  0
   21.2240  -18.0734    6.6831 H   0  0
   22.8521  -18.3059    7.3633 H   0  0
   18.4601  -18.5291    1.6164 H   0  0
   19.8522  -17.7081    0.8714 H   0  0
   19.3779  -17.3173    2.5417 H   0  0
   24.4385  -16.1216    6.4323 H   0  0
   25.1968  -17.6216    5.8453 H   0  0
   25.7816  -17.1993    8.2216 H   0  0
   26.4705  -15.6203    7.7755 H   0  0
   27.2285  -17.1198    7.1887 H   0  0
  1  2  1  0
  2  3  1  0
  3  4  1  0
  4  5  1  0
  5  6  1  0
  6  1  1  0
  6  7  2  0
  1  8  1  0
  2  9  1  0
  3 10  1  0
  4 11  1  0
 11 12  1  0
  9 13  1  0
 13 14  1  0
 13 15  2  0
  8 16  1  0
 16 17  1  0
 16 18  2  0
 10 19  1  0
 19 20  2  0
 19 21  1  0
 21 22  1  0
  1 23  1  0
  2 24  1  0
  3 25  1  0
  4 26  1  0
  7 27  1  0
  7 28  1  0
 10 29  1  0
 12 30  1  0
 12 31  1  0
 12 32  1  0
 14 33  1  0
 14 34  1  0
 14 35  1  0
 17 36  1  0
 17 37  1  0
 17 38  1  0
 21 39  1  0
 21 40  1  0
 22 41  1  0
 22 42  1  0
 22 43  1  0
M  END
> <Name>
7 Stubbs et al., 2013

> <Clean Energy>
50.4069366455078

> <Forcefield>
MMFF

> <Chemical Formula>
C14H21NO7

> <ForcefieldBase>
MMFF

> <Reference>
Stubbs et al., 2013

> <ForcefieldFFML>
<?xml version="1.0" encoding="UTF-8"?>
<!DOCTYPE ffml SYSTEM "Ffml.dtd">
<ffml version="1.0">
<forcefield name="7 Stubbs et al., 2013-MMFF" derivedFrom="MMFF" base="MMFF">
<atomTypes>
<atomType
 name="C100"
 element="C"
 mass="12.011"
 annotation=""/>
<atomType
 name="O101"
 element="O"
 mass="16"
 annotation=""/>
<atomType
 name="N102"
 element="N"
 mass="14.007"
 annotation=""/>
<atomType
 name="H103"
 element="H"
 mass="1.008"
 annotation=""/>
</atomTypes>
<parameters>
</parameters>
</forcefield>
</ffml>

$$$$
8 Stubbs et al., 2013
  SciTegic07212313593D

 46 46  0  0  0  0            999 V2000
   22.1710  -17.6066    1.2673 C   0  0  1  0  0  0
   23.3400  -17.3604    2.2794 C   0  0  1  0  0  0
   23.9924  -15.9838    1.9133 C   0  0  2  0  0  0
   24.5892  -16.1675    0.5113 C   0  0  1  0  0  0
   23.6708  -16.5528   -0.5353 O   0  0
   22.6490  -17.4436   -0.1952 C   0  0
   21.9458  -17.9522   -1.2179 C   0  0
   21.5047  -18.8950    1.5397 O   0  0
   22.7683  -17.3150    3.6229 O   0  0
   25.1912  -15.5137    2.7251 N   0  0
   25.2323  -14.9616    0.0913 O   0  0
   25.8495  -15.1657   -1.1819 C   0  0
   22.3414  -18.5538    4.1651 C   0  0
   21.6879  -18.5818    5.5157 C   0  0
   22.5411  -19.6174    3.5663 O   0  0
   20.1272  -19.1064    1.1733 C   0  0
   19.2189  -18.0155    0.6393 C   0  0
   19.6348  -20.2180    1.4006 O   0  0
   25.7251  -15.7984    4.0602 C   0  0
   26.9859  -15.0840    4.4476 O   0  0
   25.1028  -16.7156    5.0824 C   0  0
   25.8395  -16.6846    6.4312 C   0  0
   25.1184  -17.6320    7.4112 C   0  0
   21.4312  -16.8261    1.4453 H   0  0
   24.0773  -18.1600    2.2083 H   0  0
   23.2297  -15.2054    1.8929 H   0  0
   25.3539  -16.9413    0.5786 H   0  0
   22.1863  -17.6642   -2.2413 H   0  0
   21.1339  -18.6536   -1.0256 H   0  0
   25.7886  -14.8037    2.1923 H   0  0
   26.3393  -14.2456   -1.5005 H   0  0
   25.0911  -15.4451   -1.9133 H   0  0
   26.5895  -15.9623   -1.1040 H   0  0
   21.4269  -19.6084    5.7724 H   0  0
   20.7846  -17.9720    5.4955 H   0  0
   22.3768  -18.1853    6.2616 H   0  0
   18.2310  -18.4303    0.4391 H   0  0
   19.6372  -17.6130   -0.2833 H   0  0
   19.1348  -17.2182    1.3778 H   0  0
   24.0690  -16.4095    5.2424 H   0  0
   25.1249  -17.7346    4.6961 H   0  0
   26.8695  -17.0139    6.2939 H   0  0
   25.8319  -15.6701    6.8296 H   0  0
   25.6311  -17.6196    8.3730 H   0  0
   25.1255  -18.6453    7.0094 H   0  0
   24.0882  -17.3018    7.5450 H   0  0
  1  2  1  0
  2  3  1  0
  3  4  1  0
  4  5  1  0
  5  6  1  0
  6  1  1  0
  6  7  2  0
  1  8  1  0
  2  9  1  0
  3 10  1  0
  4 11  1  0
 11 12  1  0
  9 13  1  0
 13 14  1  0
 13 15  2  0
  8 16  1  0
 16 17  1  0
 16 18  2  0
 10 19  1  0
 19 20  2  0
 19 21  1  0
 21 22  1  0
 22 23  1  0
  1 24  1  0
  2 25  1  0
  3 26  1  0
  4 27  1  0
  7 28  1  0
  7 29  1  0
 10 30  1  0
 12 31  1  0
 12 32  1  0
 12 33  1  0
 14 34  1  0
 14 35  1  0
 14 36  1  0
 17 37  1  0
 17 38  1  0
 17 39  1  0
 21 40  1  0
 21 41  1  0
 22 42  1  0
 22 43  1  0
 23 44  1  0
 23 45  1  0
 23 46  1  0
M  END
> <Name>
8 Stubbs et al., 2013

> <Clean Energy>
50.4289360046387

> <Forcefield>
MMFF

> <Chemical Formula>
C15H23NO7

> <ForcefieldBase>
MMFF

> <Reference>
Stubbs et al., 2013

> <ForcefieldFFML>
<?xml version="1.0" encoding="UTF-8"?>
<!DOCTYPE ffml SYSTEM "Ffml.dtd">
<ffml version="1.0">
<forcefield name="8 Stubbs et al., 2013-MMFF" derivedFrom="MMFF" base="MMFF">
<atomTypes>
<atomType
 name="C100"
 element="C"
 mass="12.011"
 annotation=""/>
<atomType
 name="O101"
 element="O"
 mass="16"
 annotation=""/>
<atomType
 name="N102"
 element="N"
 mass="14.007"
 annotation=""/>
<atomType
 name="H103"
 element="H"
 mass="1.008"
 annotation=""/>
</atomTypes>
<parameters>
</parameters>
</forcefield>
</ffml>

$$$$
9 Stubbs et al., 2013
  SciTegic07212313593D

 49 49  0  0  0  0            999 V2000
   22.4544  -16.2881   -3.3042 C   0  0  1  0  0  0
   23.5920  -16.0399   -2.2683 C   0  0  1  0  0  0
   24.2647  -14.6740   -2.6218 C   0  0  2  0  0  0
   24.9000  -14.8662   -4.0071 C   0  0  1  0  0  0
   24.0043  -15.2540   -5.0728 O   0  0
   22.9635  -16.1388   -4.7580 C   0  0
   22.2793  -16.6396   -5.7878 C   0  0
   21.7798  -17.5748   -3.0396 O   0  0
   22.9825  -15.9733   -0.9346 O   0  0
   25.4236  -14.1920   -1.7542 N   0  0
   25.5537  -13.6622   -4.4164 O   0  0
   26.1948  -13.8699   -5.6773 C   0  0
   22.5268  -17.2071   -0.3979 C   0  0
   21.8137  -17.2208    0.9219 C   0  0
   22.7444  -18.2764   -0.9790 O   0  0
   20.4099  -17.7876   -3.4254 C   0  0
   19.5111  -16.6980   -3.9764 C   0  0
   19.9138  -18.8973   -3.2001 O   0  0
   25.9760  -14.5825   -0.4470 C   0  0
   27.0542  -13.7085    0.1218 O   0  0
   25.5279  -15.7613    0.3815 C   0  0
   25.7364  -15.5228    1.8866 C   0  0
   25.1226  -16.7131    2.6519 C   0  0
   25.1648  -16.4483    4.1653 C   0  0
   21.7116  -15.5057   -3.1491 H   0  0
   24.3251  -16.8454   -2.3102 H   0  0
   23.5027  -13.8964   -2.6758 H   0  0
   25.6612  -15.6412   -3.9168 H   0  0
   22.5418  -16.3548   -6.8067 H   0  0
   21.4576  -17.3335   -5.6104 H   0  0
   25.9599  -13.3806   -2.2002 H   0  0
   26.6926  -12.9514   -5.9880 H   0  0
   25.4498  -14.1488   -6.4226 H   0  0
   26.9313  -14.6680   -5.5840 H   0  0
   21.5386  -18.2444    1.1762 H   0  0
   20.9140  -16.6091    0.8557 H   0  0
   22.4698  -16.8190    1.6941 H   0  0
   18.5260  -17.1126   -4.1905 H   0  0
   19.9438  -16.2987   -4.8938 H   0  0
   19.4164  -15.8984   -3.2418 H   0  0
   24.4682  -15.9378    0.1971 H   0  0
   26.1005  -16.6391    0.0821 H   0  0
   26.8021  -15.4536    2.1051 H   0  0
   25.2430  -14.5980    2.1856 H   0  0
   24.0873  -16.8474    2.3386 H   0  0
   25.6905  -17.6163    2.4284 H   0  0
   24.7289  -17.2953    4.6952 H   0  0
   24.5964  -15.5465    4.3929 H   0  0
   26.1991  -16.3152    4.4827 H   0  0
  1  2  1  0
  2  3  1  0
  3  4  1  0
  4  5  1  0
  5  6  1  0
  6  1  1  0
  6  7  2  0
  1  8  1  0
  2  9  1  0
  3 10  1  0
  4 11  1  0
 11 12  1  0
  9 13  1  0
 13 14  1  0
 13 15  2  0
  8 16  1  0
 16 17  1  0
 16 18  2  0
 10 19  1  0
 19 20  2  0
 19 21  1  0
 21 22  1  0
 22 23  1  0
 23 24  1  0
  1 25  1  0
  2 26  1  0
  3 27  1  0
  4 28  1  0
  7 29  1  0
  7 30  1  0
 10 31  1  0
 12 32  1  0
 12 33  1  0
 12 34  1  0
 14 35  1  0
 14 36  1  0
 14 37  1  0
 17 38  1  0
 17 39  1  0
 17 40  1  0
 21 41  1  0
 21 42  1  0
 22 43  1  0
 22 44  1  0
 23 45  1  0
 23 46  1  0
 24 47  1  0
 24 48  1  0
 24 49  1  0
M  END
> <Name>
9 Stubbs et al., 2013

> <Clean Energy>
52.1356544494629

> <Forcefield>
MMFF

> <Chemical Formula>
C16H25NO7

> <ForcefieldBase>
MMFF

> <Reference>
Stubbs et al., 2013

> <ForcefieldFFML>
<?xml version="1.0" encoding="UTF-8"?>
<!DOCTYPE ffml SYSTEM "Ffml.dtd">
<ffml version="1.0">
<forcefield name="9 Stubbs et al., 2013-MMFF" derivedFrom="MMFF" base="MMFF">
<atomTypes>
<atomType
 name="C100"
 element="C"
 mass="12.011"
 annotation=""/>
<atomType
 name="O101"
 element="O"
 mass="16"
 annotation=""/>
<atomType
 name="N102"
 element="N"
 mass="14.007"
 annotation=""/>
<atomType
 name="H103"
 element="H"
 mass="1.008"
 annotation=""/>
</atomTypes>
<parameters>
</parameters>
</forcefield>
</ffml>

$$$$
10 Stubbs et al., 2013
  SciTegic07212313593D

 52 52  0  0  0  0            999 V2000
   12.7091  -23.4449   -3.3207 C   0  0  1  0  0  0
   13.8235  -23.2050   -2.2658 C   0  0  1  0  0  0
   14.5160  -21.8385   -2.5935 C   0  0  2  0  0  0
   15.1758  -22.0282   -3.9704 C   0  0  1  0  0  0
   14.2948  -22.4085   -5.0530 O   0  0
   13.2415  -23.2910   -4.7643 C   0  0
   12.5707  -23.7780   -5.8052 C   0  0
   12.0294  -24.7326   -3.0727 O   0  0
   13.1838  -23.1403   -0.9429 O   0  0
   15.6610  -21.3518   -1.6871 N   0  0
   15.8399  -20.8255   -4.3655 O   0  0
   16.4949  -21.0299   -5.6200 C   0  0
   12.7102  -24.3727   -0.4195 C   0  0
   11.9482  -24.3843    0.8727 C   0  0
   12.9427  -25.4426   -0.9940 O   0  0
   10.6654  -24.9447   -3.4741 C   0  0
    9.7729  -23.8529   -4.0295 C   0  0
   10.1675  -26.0550   -3.2578 O   0  0
   16.2138  -21.7703   -0.5019 C   0  0
   17.1302  -21.0807   -0.0348 O   0  0
   15.7790  -22.9627    0.3039 C   0  0
   15.9171  -22.7338    1.8143 C   0  0
   15.1910  -23.9095    2.4975 C   0  0
   15.0422  -23.6800    4.0064 C   0  0
   14.1890  -24.8228    4.5971 C   0  0
   11.9642  -22.6627   -3.1750 H   0  0
   14.5523  -24.0150   -2.2944 H   0  0
   13.7573  -21.0591   -2.6633 H   0  0
   15.9323  -22.8065   -3.8705 H   0  0
   12.8498  -23.4869   -6.8179 H   0  0
   11.7422  -24.4680   -5.6452 H   0  0
   16.1416  -20.4774   -2.0734 H   0  0
   17.0008  -20.1123   -5.9201 H   0  0
   15.7576  -21.3014   -6.3755 H   0  0
   17.2264  -21.8321   -5.5221 H   0  0
   11.6656  -25.4077    1.1193 H   0  0
   11.0504  -23.7745    0.7711 H   0  0
   12.5740  -23.9791    1.6678 H   0  0
    8.7904  -24.2666   -4.2566 H   0  0
   10.2158  -23.4490   -4.9399 H   0  0
    9.6698  -23.0570   -3.2920 H   0  0
   14.7343  -23.1755    0.0770 H   0  0
   16.3939  -23.8175    0.0225 H   0  0
   16.9690  -22.7228    2.0997 H   0  0
   15.4536  -21.7886    2.0968 H   0  0
   14.1999  -24.0174    2.0566 H   0  0
   15.7635  -24.8224    2.3333 H   0  0
   16.0259  -23.6761    4.4758 H   0  0
   14.5498  -22.7241    4.1854 H   0  0
   14.0741  -24.6735    5.6707 H   0  0
   14.6826  -25.7773    4.4144 H   0  0
   13.2070  -24.8256    4.1241 H   0  0
  1  2  1  0
  2  3  1  0
  3  4  1  0
  4  5  1  0
  5  6  1  0
  6  1  1  0
  6  7  2  0
  1  8  1  0
  2  9  1  0
  3 10  1  0
  4 11  1  0
 11 12  1  0
  9 13  1  0
 13 14  1  0
 13 15  2  0
  8 16  1  0
 16 17  1  0
 16 18  2  0
 10 19  1  0
 19 20  2  0
 19 21  1  0
 21 22  1  0
 22 23  1  0
 23 24  1  0
 24 25  1  0
  1 26  1  0
  2 27  1  0
  3 28  1  0
  4 29  1  0
  7 30  1  0
  7 31  1  0
 10 32  1  0
 12 33  1  0
 12 34  1  0
 12 35  1  0
 14 36  1  0
 14 37  1  0
 14 38  1  0
 17 39  1  0
 17 40  1  0
 17 41  1  0
 21 42  1  0
 21 43  1  0
 22 44  1  0
 22 45  1  0
 23 46  1  0
 23 47  1  0
 24 48  1  0
 24 49  1  0
 25 50  1  0
 25 51  1  0
 25 52  1  0
M  END
> <Name>
10 Stubbs et al., 2013

> <Clean Energy>
54.9958038330078

> <Forcefield>
MMFF

> <Chemical Formula>
C17H27NO7

> <ForcefieldBase>
MMFF

> <Reference>
Stubbs et al., 2013

> <ForcefieldFFML>
<?xml version="1.0" encoding="UTF-8"?>
<!DOCTYPE ffml SYSTEM "Ffml.dtd">
<ffml version="1.0">
<forcefield name="10 Stubbs et al., 2013-MMFF" derivedFrom="MMFF" base="MMFF">
<atomTypes>
<atomType
 name="C100"
 element="C"
 mass="12.011"
 annotation=""/>
<atomType
 name="O101"
 element="O"
 mass="16"
 annotation=""/>
<atomType
 name="N102"
 element="N"
 mass="14.007"
 annotation=""/>
<atomType
 name="H103"
 element="H"
 mass="1.008"
 annotation=""/>
</atomTypes>
<parameters>
</parameters>
</forcefield>
</ffml>

$$$$
11 Stubbs et al., 2013
  SciTegic07212313593D

 46 46  0  0  0  0            999 V2000
   28.5666  -13.0143    1.7818 C   0  0  1  0  0  0
   29.8195  -12.8509    2.7144 C   0  0  1  0  0  0
   30.4973  -11.4796    2.3473 C   0  0  2  0  0  0
   30.9710  -11.6308    0.8984 C   0  0  1  0  0  0
   29.9719  -11.9387   -0.0870 O   0  0
   28.9468  -12.8116    0.2855 C   0  0
   28.1735  -13.2614   -0.7024 C   0  0
   27.8729  -14.2939    2.0437 O   0  0
   29.3658  -12.8354    4.1037 O   0  0
   31.7859  -11.1155    3.0440 N   0  0
   31.6366  -10.4380    0.4794 O   0  0
   32.1580  -10.6196   -0.8389 C   0  0
   28.8845  -14.0538    4.6423 C   0  0
   28.3367  -14.0717    6.0420 C   0  0
   28.9388  -15.1081    4.0010 O   0  0
   26.4723  -14.4592    1.7376 C   0  0
   25.5677  -13.3283    1.2840 C   0  0
   25.9631  -15.5662    1.9456 O   0  0
   32.2297  -11.1061    4.3283 C   0  0
   33.3800  -10.6935    4.5121 O   0  0
   31.4711  -11.5389    5.5446 C   0  0
   32.0225  -12.9335    5.9285 C   0  0
   31.8869  -10.6271    6.7105 C   0  0
   27.8707  -12.2170    2.0430 H   0  0
   30.5184  -13.6719    2.5548 H   0  0
   29.7773  -10.6653    2.4292 H   0  0
   31.7051  -12.4363    0.8791 H   0  0
   28.3606  -12.9446   -1.7284 H   0  0
   27.3540  -13.9462   -0.4843 H   0  0
   32.5352  -10.7825    2.3566 H   0  0
   32.6656   -9.7094   -1.1580 H   0  0
   31.3410  -10.8394   -1.5263 H   0  0
   32.8655  -11.4488   -0.8393 H   0  0
   28.0135  -15.0819    6.2933 H   0  0
   27.4874  -13.3918    6.1091 H   0  0
   29.1115  -13.7545    6.7400 H   0  0
   24.5609  -13.7117    1.1187 H   0  0
   25.9517  -12.9051    0.3558 H   0  0
   25.5398  -12.5546    2.0513 H   0  0
   30.3930  -11.5458    5.3838 H   0  0
   31.5023  -13.2993    6.8137 H   0  0
   33.0891  -12.8574    6.1401 H   0  0
   31.8649  -13.6271    5.1026 H   0  0
   31.3484  -10.9204    7.6116 H   0  0
   31.6482   -9.5920    6.4660 H   0  0
   32.9592  -10.7216    6.8817 H   0  0
  1  2  1  0
  2  3  1  0
  3  4  1  0
  4  5  1  0
  5  6  1  0
  6  1  1  0
  6  7  2  0
  1  8  1  0
  2  9  1  0
  3 10  1  0
  4 11  1  0
 11 12  1  0
  9 13  1  0
 13 14  1  0
 13 15  2  0
  8 16  1  0
 16 17  1  0
 16 18  2  0
 10 19  1  0
 19 20  2  0
 19 21  1  0
 21 22  1  0
 21 23  1  0
  1 24  1  0
  2 25  1  0
  3 26  1  0
  4 27  1  0
  7 28  1  0
  7 29  1  0
 10 30  1  0
 12 31  1  0
 12 32  1  0
 12 33  1  0
 14 34  1  0
 14 35  1  0
 14 36  1  0
 17 37  1  0
 17 38  1  0
 17 39  1  0
 21 40  1  0
 22 41  1  0
 22 42  1  0
 22 43  1  0
 23 44  1  0
 23 45  1  0
 23 46  1  0
M  END
> <Name>
11 Stubbs et al., 2013

> <Clean Energy>
61.2959060668945

> <Forcefield>
MMFF

> <Chemical Formula>
C15H23NO7

> <ForcefieldBase>
MMFF

> <Reference>
Stubbs et al., 2013

> <ForcefieldFFML>
<?xml version="1.0" encoding="UTF-8"?>
<!DOCTYPE ffml SYSTEM "Ffml.dtd">
<ffml version="1.0">
<forcefield name="11 Stubbs et al., 2013-MMFF" derivedFrom="MMFF" base="MMFF">
<atomTypes>
<atomType
 name="C100"
 element="C"
 mass="12.011"
 annotation=""/>
<atomType
 name="O101"
 element="O"
 mass="16"
 annotation=""/>
<atomType
 name="N102"
 element="N"
 mass="14.007"
 annotation=""/>
<atomType
 name="H103"
 element="H"
 mass="1.008"
 annotation=""/>
</atomTypes>
<parameters>
</parameters>
</forcefield>
</ffml>

$$$$
12 Stubbs et al., 2013
  SciTegic07212313593D

 49 49  0  0  0  0            999 V2000
   28.5434  -13.0486    1.9369 C   0  0  1  0  0  0
   29.7173  -12.8512    2.9439 C   0  0  1  0  0  0
   30.4096  -11.4779    2.6160 C   0  0  2  0  0  0
   30.9846  -11.6408    1.2008 C   0  0  1  0  0  0
   30.0515  -11.9750    0.1545 O   0  0
   29.0086  -12.8572    0.4696 C   0  0
   28.2930  -13.3150   -0.5547 C   0  0
   27.8638  -14.3383    2.1810 O   0  0
   29.1580  -12.8272    4.2946 O   0  0
   31.6308  -11.0613    3.4284 N   0  0
   31.6578  -10.4416    0.8073 O   0  0
   32.2578  -10.6297   -0.4772 C   0  0
   28.7067  -14.0662    4.8135 C   0  0
   28.0617  -14.1047    6.1681 C   0  0
   28.8783  -15.1214    4.1934 O   0  0
   26.4859  -14.5370    1.8173 C   0  0
   25.5802  -13.4314    1.3108 C   0  0
   25.9909  -15.6505    2.0236 O   0  0
   32.1537  -11.3523    4.6643 C   0  0
   33.2101  -10.8044    4.9558 O   0  0
   31.5449  -12.3060    5.6786 C   0  0
   32.2824  -12.3330    7.0375 C   0  0
   31.5978  -13.3835    7.9351 C   0  0
   32.1834  -10.9593    7.7351 C   0  0
   27.8154  -12.2639    2.1425 H   0  0
   30.4351  -13.6660    2.8488 H   0  0
   29.6688  -10.6784    2.6248 H   0  0
   31.7295  -12.4356    1.2403 H   0  0
   28.5323  -13.0004   -1.5705 H   0  0
   27.4676  -14.0046   -0.3779 H   0  0
   32.2388  -10.3592    2.8970 H   0  0
   32.7706   -9.7156   -0.7765 H   0  0
   31.4853  -10.8683   -1.2082 H   0  0
   32.9755  -11.4485   -0.4271 H   0  0
   27.7781  -15.1297    6.4070 H   0  0
   27.1731  -13.4735    6.1660 H   0  0
   28.7649  -13.7391    6.9164 H   0  0
   24.5897  -13.8376    1.1063 H   0  0
   25.9962  -13.0112    0.3951 H   0  0
   25.5029  -12.6496    2.0665 H   0  0
   30.5122  -12.0052    5.8550 H   0  0
   31.5643  -13.3115    5.2581 H   0  0
   33.3288  -12.5984    6.8869 H   0  0
   32.1016  -13.4206    8.9009 H   0  0
   31.6548  -14.3621    7.4583 H   0  0
   30.5525  -13.1114    8.0814 H   0  0
   32.7081  -10.9974    8.6897 H   0  0
   31.1355  -10.7130    7.9067 H   0  0
   32.6366  -10.1963    7.1022 H   0  0
  1  2  1  0
  2  3  1  0
  3  4  1  0
  4  5  1  0
  5  6  1  0
  6  1  1  0
  6  7  2  0
  1  8  1  0
  2  9  1  0
  3 10  1  0
  4 11  1  0
 11 12  1  0
  9 13  1  0
 13 14  1  0
 13 15  2  0
  8 16  1  0
 16 17  1  0
 16 18  2  0
 10 19  1  0
 19 20  2  0
 19 21  1  0
 21 22  1  0
 22 23  1  0
 22 24  1  0
  1 25  1  0
  2 26  1  0
  3 27  1  0
  4 28  1  0
  7 29  1  0
  7 30  1  0
 10 31  1  0
 12 32  1  0
 12 33  1  0
 12 34  1  0
 14 35  1  0
 14 36  1  0
 14 37  1  0
 17 38  1  0
 17 39  1  0
 17 40  1  0
 21 41  1  0
 21 42  1  0
 22 43  1  0
 23 44  1  0
 23 45  1  0
 23 46  1  0
 24 47  1  0
 24 48  1  0
 24 49  1  0
M  END
> <Name>
12 Stubbs et al., 2013

> <Clean Energy>
52.1657333374023

> <Forcefield>
MMFF

> <Chemical Formula>
C16H25NO7

> <ForcefieldBase>
MMFF

> <Reference>
Stubbs et al., 2013

> <ForcefieldFFML>
<?xml version="1.0" encoding="UTF-8"?>
<!DOCTYPE ffml SYSTEM "Ffml.dtd">
<ffml version="1.0">
<forcefield name="12 Stubbs et al., 2013-MMFF" derivedFrom="MMFF" base="MMFF">
<atomTypes>
<atomType
 name="C100"
 element="C"
 mass="12.011"
 annotation=""/>
<atomType
 name="O101"
 element="O"
 mass="16"
 annotation=""/>
<atomType
 name="N102"
 element="N"
 mass="14.007"
 annotation=""/>
<atomType
 name="H103"
 element="H"
 mass="1.008"
 annotation=""/>
</atomTypes>
<parameters>
</parameters>
</forcefield>
</ffml>

$$$$
20 Stubbs et al., 2013
  SciTegic07212313593D

 33 33  0  0  0  0            999 V2000
   22.0851  -15.7196   -6.5832 C   0  0  1  0  0  0
   23.3946  -15.7258   -5.8006 C   0  0  1  0  0  0
   24.1557  -14.3826   -6.0427 C   0  0  2  0  0  0
   24.4012  -14.2642   -7.5650 C   0  0
   23.1234  -14.2998   -8.3108 N   0  0
   22.4139  -15.5772   -8.0721 C   0  0  2  0  0  0
   21.1124  -15.6107   -8.8859 C   0  0
   23.0937  -15.9116   -4.4243 O   0  0
   21.4010  -16.9523   -6.3635 O   0  0
   25.4701  -14.3755   -5.3827 N   0  0
   21.4244  -15.5158  -10.2768 O   0  0
   25.7469  -14.1787   -4.0763 C   0  0
   24.6905  -13.9201   -3.0285 C   0  0
   26.9244  -14.2341   -3.7175 O   0  0
   25.2989  -14.1829   -1.6358 C   0  0
   21.4622  -14.8860   -6.2588 H   0  0
   24.0132  -16.5542   -6.1459 H   0  0
   23.5555  -13.5427   -5.6929 H   0  0
   24.9090  -13.3221   -7.7722 H   0  0
   25.0277  -15.0945   -7.8910 H   0  0
   23.3245  -14.2000   -9.3570 H   0  0
   23.0518  -16.4056   -8.3801 H   0  0
   20.5865  -16.5459   -8.6935 H   0  0
   20.4800  -14.7714   -8.5963 H   0  0
   22.4800  -15.1277   -4.0908 H   0  0
   22.0018  -17.7495   -6.6891 H   0  0
   26.3134  -14.5482   -6.0184 H   0  0
   21.9317  -14.6152  -10.4616 H   0  0
   24.3562  -12.8846   -3.0929 H   0  0
   23.8433  -14.5866   -3.1900 H   0  0
   24.5459  -13.9997   -0.8694 H   0  0
   26.1471  -13.5168   -1.4777 H   0  0
   25.6343  -15.2183   -1.5748 H   0  0
  1  2  1  0
  2  3  1  0
  3  4  1  0
  4  5  1  0
  5  6  1  0
  6  1  1  0
  6  7  1  0
  2  8  1  0
  1  9  1  0
  3 10  1  0
  7 11  1  0
 10 12  1  0
 12 13  1  0
 12 14  2  0
 13 15  1  0
  1 16  1  0
  2 17  1  0
  3 18  1  0
  4 19  1  0
  4 20  1  0
  5 21  1  0
  6 22  1  0
  7 23  1  0
  7 24  1  0
  8 25  1  0
  9 26  1  0
 10 27  1  0
 11 28  1  0
 13 29  1  0
 13 30  1  0
 15 31  1  0
 15 32  1  0
 15 33  1  0
M  END
> <Name>
20 Stubbs et al., 2013

> <Clean Energy>
5.62697887420654

> <Ki>
96µM

> <Inhibition against NAGL>
1

> <Chemical Formula>
C9H18N2O4

> <Reference>
Stubbs et al., 2013

> <Forcefield>
MMFF

> <ForcefieldBase>
MMFF

> <ForcefieldFFML>
<?xml version="1.0" encoding="UTF-8"?>
<!DOCTYPE ffml SYSTEM "Ffml.dtd">
<ffml version="1.0">
<forcefield name="20 Stubbs et al., 2013-MMFF" derivedFrom="MMFF" base="MMFF">
<atomTypes>
<atomType
 name="C100"
 element="C"
 mass="12.011"
 annotation=""/>
<atomType
 name="N101"
 element="N"
 mass="14.007"
 annotation=""/>
<atomType
 name="O102"
 element="O"
 mass="16"
 annotation=""/>
<atomType
 name="H103"
 element="H"
 mass="1.008"
 annotation=""/>
</atomTypes>
<parameters>
</parameters>
</forcefield>
</ffml>

$$$$
21 Stubbs et al., 2013
  SciTegic07212313593D

 36 36  0  0  0  0            999 V2000
   29.4881  -12.4340    2.7842 C   0  0  1  0  0  0
   30.7357  -12.4330    3.6563 C   0  0  1  0  0  0
   31.5487  -11.1004    3.4166 C   0  0  2  0  0  0
   31.8863  -11.0479    1.9060 C   0  0
   30.6597  -11.1050    1.0792 N   0  0
   29.9146  -12.3592    1.3213 C   0  0  2  0  0  0
   28.6636  -12.4048    0.4320 C   0  0
   30.2999  -12.5706    4.9943 O   0  0
   28.7664  -13.6446    3.0052 O   0  0
   32.8617  -11.0068    4.1271 N   0  0
   29.0564  -12.3726   -0.9400 O   0  0
   33.1754  -11.0427    5.4470 C   0  0
   32.1735  -11.2136    6.5535 C   0  0
   34.3653  -10.9676    5.7557 O   0  0
   32.8801  -11.8138    7.7818 C   0  0
   31.8273  -12.1845    8.8418 C   0  0
   28.8612  -11.5776    3.0322 H   0  0
   31.3595  -13.2869    3.3920 H   0  0
   30.9294  -10.2433    3.6813 H   0  0
   32.4155  -10.1193    1.6924 H   0  0
   32.5235  -11.8959    1.6549 H   0  0
   30.9319  -11.0540    0.0457 H   0  0
   30.5546  -13.2101    1.0879 H   0  0
   28.1097  -13.3224    0.6303 H   0  0
   28.0313  -11.5439    0.6495 H   0  0
   29.6715  -11.7668    5.2427 H   0  0
   29.3727  -14.4647    2.7556 H   0  0
   33.7046  -10.8908    3.4783 H   0  0
   29.5904  -11.4888   -1.1310 H   0  0
   31.7483  -10.2444    6.8141 H   0  0
   31.3785  -11.8835    6.2260 H   0  0
   33.4291  -12.7076    7.4855 H   0  0
   33.5731  -11.0820    8.1970 H   0  0
   32.3234  -12.6101    9.7140 H   0  0
   31.1340  -12.9156    8.4259 H   0  0
   31.2780  -11.2905    9.1372 H   0  0
  1  2  1  0
  2  3  1  0
  3  4  1  0
  4  5  1  0
  5  6  1  0
  6  1  1  0
  6  7  1  0
  2  8  1  0
  1  9  1  0
  3 10  1  0
  7 11  1  0
 10 12  1  0
 12 13  1  0
 12 14  2  0
 13 15  1  0
 15 16  1  0
  1 17  1  0
  2 18  1  0
  3 19  1  0
  4 20  1  0
  4 21  1  0
  5 22  1  0
  6 23  1  0
  7 24  1  0
  7 25  1  0
  8 26  1  0
  9 27  1  0
 10 28  1  0
 11 29  1  0
 13 30  1  0
 13 31  1  0
 15 32  1  0
 15 33  1  0
 16 34  1  0
 16 35  1  0
 16 36  1  0
M  END
> <Name>
21 Stubbs et al., 2013

> <Clean Energy>
10.9915981292725

> <Ki>
>1000µM

> <Inhibition against NAGL>
1

> <Chemical Formula>
C10H20N2O4

> <Reference>
Stubbs et al., 2013

> <Forcefield>
MMFF

> <ForcefieldBase>
MMFF

> <ForcefieldFFML>
<?xml version="1.0" encoding="UTF-8"?>
<!DOCTYPE ffml SYSTEM "Ffml.dtd">
<ffml version="1.0">
<forcefield name="21 Stubbs et al., 2013-MMFF" derivedFrom="MMFF" base="MMFF">
<atomTypes>
<atomType
 name="C100"
 element="C"
 mass="12.011"
 annotation=""/>
<atomType
 name="N101"
 element="N"
 mass="14.007"
 annotation=""/>
<atomType
 name="O102"
 element="O"
 mass="16"
 annotation=""/>
<atomType
 name="H103"
 element="H"
 mass="1.008"
 annotation=""/>
</atomTypes>
<parameters>
</parameters>
</forcefield>
</ffml>

$$$$
22 Stubbs et al., 2013
  SciTegic07212313593D

 39 39  0  0  0  0            999 V2000
   29.4627  -12.4569    3.0667 C   0  0  1  0  0  0
   30.6663  -12.4650    3.9910 C   0  0  1  0  0  0
   31.5398  -11.1626    3.7507 C   0  0  2  0  0  0
   31.9386  -11.1684    2.2532 C   0  0
   30.7412  -11.2158    1.3781 N   0  0
   29.9478  -12.4400    1.6254 C   0  0  2  0  0  0
   28.7255  -12.4756    0.6954 C   0  0
   30.1494  -12.5481    5.3027 O   0  0
   28.6961  -13.6388    3.2946 O   0  0
   32.8406  -11.0629    4.5169 N   0  0
   29.1596  -12.4961   -0.6629 O   0  0
   33.1292  -11.1645    5.8448 C   0  0
   32.0974  -11.4289    6.9021 C   0  0
   34.3054  -11.0578    6.1916 O   0  0
   32.7040  -12.0348    8.1746 C   0  0
   31.5186  -12.4714    9.0650 C   0  0
   32.0228  -13.1167   10.3648 C   0  0
   28.8516  -11.5757    3.2621 H   0  0
   31.2719  -13.3478    3.7860 H   0  0
   30.9333  -10.2808    3.9570 H   0  0
   32.5040  -10.2630    2.0328 H   0  0
   32.5589  -12.0423    2.0542 H   0  0
   31.0555  -11.2041    0.3554 H   0  0
   30.5683  -13.3171    1.4418 H   0  0
   28.1382  -13.3703    0.9021 H   0  0
   28.1129  -11.5905    0.8672 H   0  0
   29.5333  -11.7187    5.4899 H   0  0
   29.2880  -14.4836    3.0984 H   0  0
   33.6948  -10.8777    3.8998 H   0  0
   29.7254  -11.6345   -0.8631 H   0  0
   31.6120  -10.4876    7.1601 H   0  0
   31.3574  -12.1225    6.5029 H   0  0
   33.3222  -12.8965    7.9227 H   0  0
   33.3097  -11.2916    8.6930 H   0  0
   30.9152  -11.5975    9.3104 H   0  0
   30.9094  -13.1929    8.5206 H   0  0
   31.1716  -13.4163   10.9762 H   0  0
   32.6303  -12.3986   10.9157 H   0  0
   32.6246  -13.9936   10.1261 H   0  0
  1  2  1  0
  2  3  1  0
  3  4  1  0
  4  5  1  0
  5  6  1  0
  6  1  1  0
  6  7  1  0
  2  8  1  0
  1  9  1  0
  3 10  1  0
  7 11  1  0
 10 12  1  0
 12 13  1  0
 12 14  2  0
 13 15  1  0
 15 16  1  0
 16 17  1  0
  1 18  1  0
  2 19  1  0
  3 20  1  0
  4 21  1  0
  4 22  1  0
  5 23  1  0
  6 24  1  0
  7 25  1  0
  7 26  1  0
  8 27  1  0
  9 28  1  0
 10 29  1  0
 11 30  1  0
 13 31  1  0
 13 32  1  0
 15 33  1  0
 15 34  1  0
 16 35  1  0
 16 36  1  0
 17 37  1  0
 17 38  1  0
 17 39  1  0
M  END
> <Name>
22 Stubbs et al., 2013

> <Clean Energy>
12.8043804168701

> <Ki>
>1000µM

> <Inhibition against NAGL>
1

> <Chemical Formula>
C11H22N2O4

> <Reference>
Stubbs et al., 2013

> <Forcefield>
MMFF

> <ForcefieldBase>
MMFF

> <ForcefieldFFML>
<?xml version="1.0" encoding="UTF-8"?>
<!DOCTYPE ffml SYSTEM "Ffml.dtd">
<ffml version="1.0">
<forcefield name="22 Stubbs et al., 2013-MMFF" derivedFrom="MMFF" base="MMFF">
<atomTypes>
<atomType
 name="C100"
 element="C"
 mass="12.011"
 annotation=""/>
<atomType
 name="N101"
 element="N"
 mass="14.007"
 annotation=""/>
<atomType
 name="O102"
 element="O"
 mass="16"
 annotation=""/>
<atomType
 name="H103"
 element="H"
 mass="1.008"
 annotation=""/>
</atomTypes>
<parameters>
</parameters>
</forcefield>
</ffml>

$$$$
23 Stubbs et al., 2013
  SciTegic07212313593D

 42 42  0  0  0  0            999 V2000
   29.3872  -12.5253    3.3760 C   0  0  1  0  0  0
   30.5452  -12.5064    4.3473 C   0  0  1  0  0  0
   31.4546  -11.2291    4.0865 C   0  0  2  0  0  0
   31.9123  -11.3038    2.6090 C   0  0
   30.7429  -11.3725    1.6929 N   0  0
   29.9210  -12.5732    1.9566 C   0  0  2  0  0  0
   28.7233  -12.6172    0.9940 C   0  0
   29.9514  -12.5034    5.6333 O   0  0
   28.5929  -13.6856    3.6266 O   0  0
   32.7417  -11.0392    4.9041 N   0  0
   29.1887  -12.6809   -0.3510 O   0  0
   33.0885  -11.3305    6.1967 C   0  0
   32.1579  -11.9798    7.1648 C   0  0
   34.2228  -11.0391    6.5767 O   0  0
   32.6743  -12.2469    8.5665 C   0  0
   31.4812  -12.9732    9.2260 C   0  0
   31.7215  -13.3050   10.6954 C   0  0
   30.4686  -14.0349   11.2258 C   0  0
   28.7809  -11.6295    3.5101 H   0  0
   31.1411  -13.4104    4.2225 H   0  0
   30.8373  -10.3390    4.2087 H   0  0
   32.4990  -10.4162    2.3721 H   0  0
   32.5264  -12.1936    2.4705 H   0  0
   31.0938  -11.4059    0.6826 H   0  0
   30.5289  -13.4684    1.8247 H   0  0
   28.1178  -13.4976    1.2096 H   0  0
   28.1196  -11.7193    1.1260 H   0  0
   29.3463  -11.6517    5.7380 H   0  0
   29.1794  -14.5467    3.4964 H   0  0
   33.5333  -10.5836    4.3466 H   0  0
   29.7718  -11.8332   -0.5606 H   0  0
   31.2829  -11.3364    7.2572 H   0  0
   31.8613  -12.9383    6.7388 H   0  0
   33.5600  -12.8819    8.5461 H   0  0
   32.9054  -11.3167    9.0855 H   0  0
   30.6023  -12.3325    9.1542 H   0  0
   31.2991  -13.9024    8.6859 H   0  0
   32.5948  -13.9501   10.7917 H   0  0
   31.8830  -12.3872   11.2609 H   0  0
   30.6113  -14.2855   12.2769 H   0  0
   30.3103  -14.9488   10.6532 H   0  0
   29.5986  -13.3864   11.1223 H   0  0
  1  2  1  0
  2  3  1  0
  3  4  1  0
  4  5  1  0
  5  6  1  0
  6  1  1  0
  6  7  1  0
  2  8  1  0
  1  9  1  0
  3 10  1  0
  7 11  1  0
 10 12  1  0
 12 13  1  0
 12 14  2  0
 13 15  1  0
 15 16  1  0
 16 17  1  0
 17 18  1  0
  1 19  1  0
  2 20  1  0
  3 21  1  0
  4 22  1  0
  4 23  1  0
  5 24  1  0
  6 25  1  0
  7 26  1  0
  7 27  1  0
  8 28  1  0
  9 29  1  0
 10 30  1  0
 11 31  1  0
 13 32  1  0
 13 33  1  0
 15 34  1  0
 15 35  1  0
 16 36  1  0
 16 37  1  0
 17 38  1  0
 17 39  1  0
 18 40  1  0
 18 41  1  0
 18 42  1  0
M  END
> <Name>
23 Stubbs et al., 2013

> <Clean Energy>
16.6800079345703

> <Ki>
>1000µM

> <Inhibition against NAGL>
1

> <Chemical Formula>
C12H24N2O4

> <Reference>
Stubbs et al., 2013

> <Forcefield>
MMFF

> <ForcefieldBase>
MMFF

> <ForcefieldFFML>
<?xml version="1.0" encoding="UTF-8"?>
<!DOCTYPE ffml SYSTEM "Ffml.dtd">
<ffml version="1.0">
<forcefield name="23 Stubbs et al., 2013-MMFF" derivedFrom="MMFF" base="MMFF">
<atomTypes>
<atomType
 name="C100"
 element="C"
 mass="12.011"
 annotation=""/>
<atomType
 name="N101"
 element="N"
 mass="14.007"
 annotation=""/>
<atomType
 name="O102"
 element="O"
 mass="16"
 annotation=""/>
<atomType
 name="H103"
 element="H"
 mass="1.008"
 annotation=""/>
</atomTypes>
<parameters>
</parameters>
</forcefield>
</ffml>

$$$$
24 Stubbs et al., 2013
  SciTegic07212313593D

 36 36  0  0  0  0            999 V2000
   29.6552  -12.3123    2.8223 C   0  0  1  0  0  0
   30.9544  -12.3312    3.6250 C   0  0  1  0  0  0
   31.7721  -11.0314    3.3256 C   0  0  2  0  0  0
   32.0350  -11.0082    1.7954 C   0  0
   30.7658  -11.0400    1.0354 N   0  0
   30.0036  -12.2692    1.3320 C   0  0  2  0  0  0
   28.7045  -12.2854    0.5108 C   0  0
   30.5970  -12.4196    4.9896 O   0  0
   28.9150  -13.5003    3.0991 O   0  0
   33.1250  -10.9554    3.9607 N   0  0
   29.0240  -12.2709   -0.8813 O   0  0
   33.4944  -10.8548    5.2581 C   0  0
   32.5800  -10.8410    6.4520 C   0  0
   34.7204  -10.7571    5.4859 O   0  0
   32.6813  -12.2440    7.1085 C   0  0
   33.1761   -9.8957    7.5056 C   0  0
   29.0653  -11.4361    3.0912 H   0  0
   31.5432  -13.2047    3.3451 H   0  0
   31.1857  -10.1573    3.6089 H   0  0
   32.5788  -10.0983    1.5417 H   0  0
   32.6339  -11.8776    1.5242 H   0  0
   30.9840  -11.0076   -0.0116 H   0  0
   30.6060  -13.1405    1.0750 H   0  0
   28.1377  -13.1866    0.7445 H   0  0
   28.1081  -11.4066    0.7563 H   0  0
   30.0109  -11.5891    5.2529 H   0  0
   29.4845  -14.3395    2.8272 H   0  0
   33.9410  -10.9859    3.2692 H   0  0
   29.5704  -11.4030   -1.1065 H   0  0
   31.5556  -10.5777    6.1887 H   0  0
   32.0327  -12.2839    7.9835 H   0  0
   33.7116  -12.4301    7.4118 H   0  0
   32.3710  -13.0043    6.3918 H   0  0
   32.5274   -9.8712    8.3811 H   0  0
   33.2603   -8.8923    7.0882 H   0  0
   34.1645  -10.2519    7.7964 H   0  0
  1  2  1  0
  2  3  1  0
  3  4  1  0
  4  5  1  0
  5  6  1  0
  6  1  1  0
  6  7  1  0
  2  8  1  0
  1  9  1  0
  3 10  1  0
  7 11  1  0
 10 12  1  0
 12 13  1  0
 12 14  2  0
 13 15  1  0
 13 16  1  0
  1 17  1  0
  2 18  1  0
  3 19  1  0
  4 20  1  0
  4 21  1  0
  5 22  1  0
  6 23  1  0
  7 24  1  0
  7 25  1  0
  8 26  1  0
  9 27  1  0
 10 28  1  0
 11 29  1  0
 13 30  1  0
 15 31  1  0
 15 32  1  0
 15 33  1  0
 16 34  1  0
 16 35  1  0
 16 36  1  0
M  END
> <Name>
24 Stubbs et al., 2013

> <Clean Energy>
20.5309009552002

> <Ki>
800µM

> <Inhibition against NAGL>
1

> <Chemical Formula>
C10H20N2O4

> <Reference>
Stubbs et al., 2013

> <Forcefield>
MMFF

> <ForcefieldBase>
MMFF

> <ForcefieldFFML>
<?xml version="1.0" encoding="UTF-8"?>
<!DOCTYPE ffml SYSTEM "Ffml.dtd">
<ffml version="1.0">
<forcefield name="24 Stubbs et al., 2013-MMFF" derivedFrom="MMFF" base="MMFF">
<atomTypes>
<atomType
 name="C100"
 element="C"
 mass="12.011"
 annotation=""/>
<atomType
 name="N101"
 element="N"
 mass="14.007"
 annotation=""/>
<atomType
 name="O102"
 element="O"
 mass="16"
 annotation=""/>
<atomType
 name="H103"
 element="H"
 mass="1.008"
 annotation=""/>
</atomTypes>
<parameters>
</parameters>
</forcefield>
</ffml>

$$$$
25 Stubbs et al., 2013
  SciTegic07212313593D

 39 39  0  0  0  0            999 V2000
   29.5968  -12.4103    3.0197 C   0  0  1  0  0  0
   30.8317  -12.4259    3.9046 C   0  0  1  0  0  0
   31.6550  -11.0904    3.6924 C   0  0  2  0  0  0
   32.0084  -11.0214    2.1846 C   0  0
   30.7876  -11.0657    1.3449 N   0  0
   30.0341  -12.3189    1.5643 C   0  0  2  0  0  0
   28.7852  -12.3453    0.6703 C   0  0
   30.3657  -12.5785    5.2289 O   0  0
   28.8673  -13.6201    3.2192 O   0  0
   32.9695  -10.9808    4.4194 N   0  0
   29.1794  -12.2954   -0.6997 O   0  0
   33.3005  -11.1007    5.7337 C   0  0
   32.3033  -11.4292    6.8311 C   0  0
   34.4919  -10.9773    6.0253 O   0  0
   32.9561  -11.8892    8.1569 C   0  0
   31.8483  -12.3969    9.0969 C   0  0
   33.7032  -10.7288    8.8448 C   0  0
   28.9709  -11.5546    3.2726 H   0  0
   31.4548  -13.2803    3.6402 H   0  0
   31.0285  -10.2375    3.9534 H   0  0
   32.5420  -10.0917    1.9869 H   0  0
   32.6458  -11.8681    1.9299 H   0  0
   31.0701  -11.0040    0.3147 H   0  0
   30.6701  -13.1707    1.3231 H   0  0
   28.2263  -13.2629    0.8542 H   0  0
   28.1568  -11.4845    0.8989 H   0  0
   29.7361  -11.7747    5.4737 H   0  0
   29.4729  -14.4401    2.9673 H   0  0
   33.8013  -10.7682    3.7808 H   0  0
   29.7179  -11.4117   -0.8776 H   0  0
   31.7095  -10.5377    7.0327 H   0  0
   31.6520  -12.2273    6.4747 H   0  0
   33.6563  -12.6993    7.9529 H   0  0
   32.2912  -12.7255   10.0371 H   0  0
   31.3288  -13.2331    8.6288 H   0  0
   31.1392  -11.5923    9.2915 H   0  0
   34.1507  -11.0837    9.7731 H   0  0
   33.0016   -9.9240    9.0647 H   0  0
   34.4860  -10.3573    8.1835 H   0  0
  1  2  1  0
  2  3  1  0
  3  4  1  0
  4  5  1  0
  5  6  1  0
  6  1  1  0
  6  7  1  0
  2  8  1  0
  1  9  1  0
  3 10  1  0
  7 11  1  0
 10 12  1  0
 12 13  1  0
 12 14  2  0
 13 15  1  0
 15 16  1  0
 15 17  1  0
  1 18  1  0
  2 19  1  0
  3 20  1  0
  4 21  1  0
  4 22  1  0
  5 23  1  0
  6 24  1  0
  7 25  1  0
  7 26  1  0
  8 27  1  0
  9 28  1  0
 10 29  1  0
 11 30  1  0
 13 31  1  0
 13 32  1  0
 15 33  1  0
 16 34  1  0
 16 35  1  0
 16 36  1  0
 17 37  1  0
 17 38  1  0
 17 39  1  0
M  END
> <Name>
25 Stubbs et al., 2013

> <Clean Energy>
12.7907915115356

> <Ki>
>1000µM

> <Inhibition against NAGL>
1

> <Chemical Formula>
C11H22N2O4

> <Reference>
Stubbs et al., 2013

> <Forcefield>
MMFF

> <ForcefieldBase>
MMFF

> <ForcefieldFFML>
<?xml version="1.0" encoding="UTF-8"?>
<!DOCTYPE ffml SYSTEM "Ffml.dtd">
<ffml version="1.0">
<forcefield name="25 Stubbs et al., 2013-MMFF" derivedFrom="MMFF" base="MMFF">
<atomTypes>
<atomType
 name="C100"
 element="C"
 mass="12.011"
 annotation=""/>
<atomType
 name="N101"
 element="N"
 mass="14.007"
 annotation=""/>
<atomType
 name="O102"
 element="O"
 mass="16"
 annotation=""/>
<atomType
 name="H103"
 element="H"
 mass="1.008"
 annotation=""/>
</atomTypes>
<parameters>
</parameters>
</forcefield>
</ffml>

$$$$
Nagstatin
  SciTegic07212313593D

 38 39  0  0  0  0            999 V2000
   17.6063  -16.1728   -1.0442 C   0  0  1  0  0  0
   17.8272  -14.8803   -0.2553 C   0  0  1  0  0  0
   18.0378  -13.7040   -1.2881 C   0  0  2  0  0  0
   19.0999  -14.0959   -2.2720 C   0  0
   19.4076  -15.3984   -2.5418 N   0  0
   18.9520  -16.4953   -1.7621 C   0  0  2  0  0  0
   19.8037  -13.3188   -3.0052 N   0  0
   20.6348  -14.1793   -3.7890 C   0  0
   20.3858  -15.4523   -3.4969 C   0  0
   18.8678  -17.7731   -2.6204 C   0  0
   16.6935  -14.5910    0.5573 O   0  0
   17.3038  -17.2552   -0.1637 O   0  0
   18.3550  -12.4252   -0.6426 N   0  0
   21.6680  -13.7583   -4.8138 C   0  0
   21.7798  -12.2674   -4.9765 C   0  0
   22.5952  -11.8063   -5.7839 O   0  0
   20.9826  -11.4063   -4.2361 O   0  0
   18.5020  -18.8863   -1.8034 O   0  0
   17.4677  -11.5445   -0.1313 C   0  0
   17.9007  -10.5103    0.3890 O   0  0
   15.9689  -11.7588   -0.1642 C   0  0
   16.8075  -16.0413   -1.7741 H   0  0
   18.7127  -14.9803    0.3724 H   0  0
   17.1061  -13.5755   -1.8391 H   0  0
   19.6977  -16.6740   -0.9875 H   0  0
   20.8552  -16.3392   -3.9226 H   0  0
   18.1184  -17.6356   -3.3999 H   0  0
   19.8382  -17.9648   -3.0785 H   0  0
   15.8456  -14.4776   -0.0516 H   0  0
   18.1016  -17.3974    0.5040 H   0  0
   19.3903  -12.1649   -0.5698 H   0  0
   22.6387  -14.1449   -4.5036 H   0  0
   21.3948  -14.1906   -5.7764 H   0  0
   19.9715  -11.5991   -4.4437 H   0  0
   19.2231  -19.0217   -1.0522 H   0  0
   15.4699  -10.9127    0.3081 H   0  0
   15.7202  -12.6734    0.3741 H   0  0
   15.6363  -11.8448   -1.1987 H   0  0
  1  2  1  0
  2  3  1  0
  3  4  1  0
  4  5  1  0
  5  6  1  0
  6  1  1  0
  4  7  2  0
  7  8  1  0
  8  9  2  0
  9  5  1  0
  6 10  1  0
  2 11  1  0
  1 12  1  0
  3 13  1  0
  8 14  1  0
 14 15  1  0
 15 16  2  0
 15 17  1  0
 10 18  1  0
 13 19  1  0
 19 20  2  0
 19 21  1  0
  1 22  1  0
  2 23  1  0
  3 24  1  0
  6 25  1  0
  9 26  1  0
 10 27  1  0
 10 28  1  0
 11 29  1  0
 12 30  1  0
 13 31  1  0
 14 32  1  0
 14 33  1  0
 17 34  1  0
 18 35  1  0
 21 36  1  0
 21 37  1  0
 21 38  1  0
M  END
> <Name>
Nagstatin

> <Clean Energy>
46.8184928894043

> <Reference>
Shen et al., 2018

> <Chemical Formula>
C12H17N3O6

> <Forcefield>
MMFF

> <ForcefieldBase>
MMFF

> <ForcefieldFFML>
<?xml version="1.0" encoding="UTF-8"?>
<!DOCTYPE ffml SYSTEM "Ffml.dtd">
<ffml version="1.0">
<forcefield name="Nagstatin-MMFF" derivedFrom="MMFF" base="MMFF">
<atomTypes>
<atomType
 name="C100"
 element="C"
 mass="12.011"
 annotation=""/>
<atomType
 name="N101"
 element="N"
 mass="14.007"
 annotation=""/>
<atomType
 name="O102"
 element="O"
 mass="16"
 annotation=""/>
<atomType
 name="H103"
 element="H"
 mass="1.008"
 annotation=""/>
</atomTypes>
<parameters>
</parameters>
</forcefield>
</ffml>

$$$$
NAG-thiazoline
  SciTegic07212313593D

 27 28  0  0  0  0            999 V2000
   18.1878  -12.7994   -1.6168 C   0  0  1  0  0  0
   18.3387  -11.3957   -0.9980 C   0  0  1  0  0  0
   18.6909  -10.4556   -2.1345 C   0  0  2  0  0  0
   19.9787  -10.9236   -2.7803 C   0  0  1  0  0  0
   19.8536  -12.2254   -3.3630 O   0  0
   19.5327  -13.1907   -2.3196 C   0  0  2  0  0  0
   18.9264   -9.0471   -1.7809 N   0  0
   19.7138   -8.4746   -2.6174 C   0  0
   20.2911   -9.5735   -3.8679 S   0  0
   19.4071  -14.5900   -2.9576 C   0  0
   17.1208  -10.9911   -0.3711 O   0  0
   17.8720  -13.7377   -0.5868 O   0  0
   19.1168  -15.5655   -1.9544 O   0  0
   20.1188   -7.0330   -2.5255 C   0  0
   17.3846  -12.7861   -2.3535 H   0  0
   19.1447  -11.4027   -0.2642 H   0  0
   17.8951  -10.4977   -2.8782 H   0  0
   20.7614  -10.9520   -2.0223 H   0  0
   20.3345  -13.2024   -1.5812 H   0  0
   18.6025  -14.5794   -3.6928 H   0  0
   20.3455  -14.8471   -3.4488 H   0  0
   16.3504  -10.9678   -1.0841 H   0  0
   18.6433  -13.7489    0.1256 H   0  0
   19.8909  -15.5798   -1.2450 H   0  0
   20.7896   -6.7902   -3.3495 H   0  0
   20.6295   -6.8582   -1.5784 H   0  0
   19.2320   -6.4017   -2.5815 H   0  0
  1  2  1  0
  2  3  1  0
  3  4  1  0
  4  5  1  0
  5  6  1  0
  6  1  1  0
  3  7  1  0
  7  8  2  0
  8  9  1  0
  9  4  1  0
  6 10  1  0
  2 11  1  0
  1 12  1  0
 10 13  1  0
  8 14  1  0
  1 15  1  0
  2 16  1  0
  3 17  1  0
  4 18  1  0
  6 19  1  0
 10 20  1  0
 10 21  1  0
 11 22  1  0
 12 23  1  0
 13 24  1  0
 14 25  1  0
 14 26  1  0
 14 27  1  0
M  END
> <Name>
NAG-thiazoline

> <Clean Energy>
19.1310997009277

> <Reference>
Shen et al., 2018

> <Chemical Formula>
C8H13NO4S

> <Forcefield>
MMFF

> <ForcefieldBase>
MMFF

> <ForcefieldFFML>
<?xml version="1.0" encoding="UTF-8"?>
<!DOCTYPE ffml SYSTEM "Ffml.dtd">
<ffml version="1.0">
<forcefield name="NAG-thiazoline-MMFF" derivedFrom="MMFF" base="MMFF">
<atomTypes>
<atomType
 name="C100"
 element="C"
 mass="12.011"
 annotation=""/>
<atomType
 name="O101"
 element="O"
 mass="16"
 annotation=""/>
<atomType
 name="N102"
 element="N"
 mass="14.007"
 annotation=""/>
<atomType
 name="S103"
 element="S"
 mass="32.066"
 annotation=""/>
<atomType
 name="H104"
 element="H"
 mass="1.008"
 annotation=""/>
</atomTypes>
<parameters>
</parameters>
</forcefield>
</ffml>

$$$$
7 Shen et al., 2018
  SciTegic07212313593D

 47 50  0  0  0  0            999 V2000
   17.6476  -10.1334   -0.4277 C   0  0
   18.6201   -9.7866   -1.4589 C   0  0
   19.2674  -10.7939   -2.1957 N   0  0
   18.9385  -12.1784   -1.8942 C   0  0
   17.9498  -12.4908   -0.8461 C   0  0
   17.3512  -11.5225   -0.1566 C   0  0
   17.6293  -13.8912   -0.5512 C   0  0
   16.7384  -14.1890    0.3941 C   0  0
   16.0825  -13.1167    1.1440 C   0  0
   16.3774  -11.8473    0.8729 C   0  0
   15.7375  -10.7654    1.6066 C   0  0
   16.0474   -9.4999    1.3210 C   0  0
   17.0370   -9.1733    0.2700 C   0  0
   19.4544  -13.1303   -2.4878 O   0  0
   18.8734   -8.5987   -1.6857 O   0  0
   20.2520  -10.3464   -3.2379 C   0  0
   20.9723  -11.4593   -4.0562 C   0  0
   21.9199  -10.8935   -5.0547 N   0  0
   22.5477  -12.0259   -5.7741 C   0  0
   23.5448  -11.5870   -6.8309 C   0  0
   23.7988  -10.2974   -7.0551 C   0  0
   24.7773   -9.9121   -8.0939 C   0  0
   25.4072  -10.8509   -8.8080 C   0  0
   25.1213  -12.2620   -8.5542 C   0  0
   24.2402  -12.6108   -7.6188 C   0  0
   26.3456  -10.5112   -9.8054 O   0  0
   26.5071   -9.0903   -9.9250 C   0  0
   18.1208  -14.6902   -1.1064 H   0  0
   16.4984  -15.2304    0.6087 H   0  0
   15.3563  -13.3564    1.9207 H   0  0
   15.0085  -10.9882    2.3856 H   0  0
   15.5637   -8.6926    1.8710 H   0  0
   17.2715   -8.1293    0.0619 H   0  0
   19.7165   -9.7131   -3.9451 H   0  0
   21.0202   -9.7601   -2.7337 H   0  0
   21.5261  -12.0985   -3.3688 H   0  0
   20.2222  -12.0519   -4.5799 H   0  0
   22.6714  -10.3167   -4.5573 H   0  0
   23.0663  -12.6520   -5.0480 H   0  0
   21.7623  -12.6056   -6.2591 H   0  0
   23.2868   -9.5301   -6.4744 H   0  0
   24.9862   -8.8583   -8.2785 H   0  0
   25.6317  -13.0317   -9.1331 H   0  0
   24.0339  -13.6656   -7.4370 H   0  0
   27.2379   -8.8714  -10.7034 H   0  0
   26.8549   -8.6825   -8.9758 H   0  0
   25.5513   -8.6362  -10.1866 H   0  0
  1  2  1  0
  2  3  1  0
  3  4  1  0
  4  5  1  0
  5  6  2  0
  6  1  1  0
  5  7  1  0
  7  8  2  0
  8  9  1  0
  9 10  2  0
 10  6  1  0
 10 11  1  0
 11 12  2  0
 12 13  1  0
 13  1  2  0
  4 14  2  0
  2 15  2  0
  3 16  1  0
 16 17  1  0
 17 18  1  0
 18 19  1  0
 19 20  1  0
 20 21  2  0
 21 22  1  0
 22 23  2  0
 23 24  1  0
 24 25  2  0
 25 20  1  0
 23 26  1  0
 26 27  1  0
  7 28  1  0
  8 29  1  0
  9 30  1  0
 11 31  1  0
 12 32  1  0
 13 33  1  0
 16 34  1  0
 16 35  1  0
 17 36  1  0
 17 37  1  0
 18 38  1  0
 19 39  1  0
 19 40  1  0
 21 41  1  0
 22 42  1  0
 24 43  1  0
 25 44  1  0
 27 45  1  0
 27 46  1  0
 27 47  1  0
M  END
> <Name>
7 Shen et al., 2018

> <Clean Energy>
0.603496968746185

> <Chemical Formula>
C22H20N2O3

> <Reference>
Shen et al., 2018

> <Forcefield>
MMFF

> <ForcefieldBase>
MMFF

> <ForcefieldFFML>
<?xml version="1.0" encoding="UTF-8"?>
<!DOCTYPE ffml SYSTEM "Ffml.dtd">
<ffml version="1.0">
<forcefield name="7 Shen et al., 2018-MMFF" derivedFrom="MMFF" base="MMFF">
<atomTypes>
<atomType
 name="C100"
 element="C"
 mass="12.011"
 annotation=""/>
<atomType
 name="N101"
 element="N"
 mass="14.007"
 annotation=""/>
<atomType
 name="O102"
 element="O"
 mass="16"
 annotation=""/>
<atomType
 name="H103"
 element="H"
 mass="1.008"
 annotation=""/>
</atomTypes>
<parameters>
</parameters>
</forcefield>
</ffml>

$$$$
8 Shen et al., 2018
  SciTegic07212313593D

 41 44  0  0  0  0            999 V2000
   12.8022  -16.3246    4.5506 C   0  0
   12.1809  -15.3832    5.2577 C   0  0
   12.4685  -13.9719    4.9990 C   0  0
   13.3553  -13.6334    4.0633 C   0  0
   14.0283  -14.6555    3.2942 C   0  0
   13.7713  -15.9419    3.5236 C   0  0
   11.7907  -12.9333    5.7726 C   0  0
   12.0580  -11.6510    5.5327 C   0  0
   13.0333  -11.2876    4.4983 C   0  0
   13.6473  -12.2403    3.7978 C   0  0
   14.6232  -11.8823    2.7627 C   0  0
   15.2918  -12.8777    2.0039 N   0  0
   14.9960  -14.2878    2.2682 C   0  0
   15.5324  -15.2154    1.6546 O   0  0
   14.8650  -10.6894    2.5483 O   0  0
   16.2676  -12.3930    0.9722 C   0  0
   16.9900  -13.4947    0.1520 C   0  0
   17.9337  -12.9536   -0.8431 N   0  0
   18.5318  -14.1156   -1.5318 C   0  0
   19.5265  -13.7137   -2.5870 C   0  0
   19.8386  -12.5079   -2.8764 N   0  0
   20.7868  -12.4082   -3.8933 N   0  0
   21.1720  -13.5390   -4.3515 C   0  0
   20.3888  -14.8577   -3.5593 S   0  0
   22.1851  -13.7041   -5.4484 C   0  0
   12.5895  -17.3774    4.7363 H   0  0
   11.4606  -15.6627    6.0266 H   0  0
   14.2838  -16.7108    2.9454 H   0  0
   11.0695  -13.2073    6.5426 H   0  0
   11.5528  -10.8722    6.1040 H   0  0
   13.2554  -10.2385    4.3030 H   0  0
   15.7252  -11.7573    0.2723 H   0  0
   17.0291  -11.8041    1.4835 H   0  0
   17.5421  -14.1335    0.8414 H   0  0
   16.2382  -14.0868   -0.3698 H   0  0
   18.6952  -12.3807   -0.3565 H   0  0
   19.0385  -14.7364   -0.7928 H   0  0
   17.7347  -14.6896   -2.0041 H   0  0
   22.3340  -14.7650   -5.6495 H   0  0
   23.1305  -13.2570   -5.1408 H   0  0
   21.8270  -13.2103   -6.3518 H   0  0
  1  2  2  0
  2  3  1  0
  3  4  2  0
  4  5  1  0
  5  6  2  0
  6  1  1  0
  3  7  1  0
  7  8  2  0
  8  9  1  0
  9 10  2  0
 10  4  1  0
 10 11  1  0
 11 12  1  0
 12 13  1  0
 13  5  1  0
 13 14  2  0
 11 15  2  0
 12 16  1  0
 16 17  1  0
 17 18  1  0
 18 19  1  0
 19 20  1  0
 20 21  2  0
 21 22  1  0
 22 23  2  0
 23 24  1  0
 24 20  1  0
 23 25  1  0
  1 26  1  0
  2 27  1  0
  6 28  1  0
  7 29  1  0
  8 30  1  0
  9 31  1  0
 16 32  1  0
 16 33  1  0
 17 34  1  0
 17 35  1  0
 18 36  1  0
 19 37  1  0
 19 38  1  0
 25 39  1  0
 25 40  1  0
 25 41  1  0
M  END
> <Name>
8 Shen et al., 2018

> <Clean Energy>
15.4576625823975

> <Chemical Formula>
C18H16N4O2S

> <Reference>
Shen et al., 2018

> <Forcefield>
MMFF

> <ForcefieldBase>
MMFF

> <ForcefieldFFML>
<?xml version="1.0" encoding="UTF-8"?>
<!DOCTYPE ffml SYSTEM "Ffml.dtd">
<ffml version="1.0">
<forcefield name="8 Shen et al., 2018-MMFF" derivedFrom="MMFF" base="MMFF">
<atomTypes>
<atomType
 name="C100"
 element="C"
 mass="12.011"
 annotation=""/>
<atomType
 name="N101"
 element="N"
 mass="14.007"
 annotation=""/>
<atomType
 name="O102"
 element="O"
 mass="16"
 annotation=""/>
<atomType
 name="S103"
 element="S"
 mass="32.066"
 annotation=""/>
<atomType
 name="H104"
 element="H"
 mass="1.008"
 annotation=""/>
</atomTypes>
<parameters>
</parameters>
</forcefield>
</ffml>

$$$$
11a Shen et al., 2018
  SciTegic07212313593D

 51 51  0  0  0  0            999 V2000
   17.0842  -12.2385   -0.2631 C   0  0  1  0  0  0
   17.2067  -10.7456    0.2508 C   0  0  1  0  0  0
   17.4700   -9.8469   -1.0253 C   0  0  2  0  0  0
   18.7839  -10.3505   -1.7025 C   0  0  1  0  0  0
   18.6714  -11.7338   -2.0704 O   0  0
   18.4244  -12.6047   -0.9528 C   0  0  2  0  0  0
   18.3525  -14.0490   -1.5144 C   0  0
   15.9580  -10.3618    0.9121 O   0  0
   19.0977   -9.3997   -3.2183 S   0  0
   16.8896  -13.1905    0.8504 O   0  0
   17.4870   -8.3981   -0.6332 N   0  0
   18.1106  -15.0206   -0.4950 O   0  0
   20.7203   -9.8066   -3.8951 C   0  0
   15.5882  -13.3380    1.4624 C   0  0
   15.4891  -14.1035    2.4288 O   0  0
   14.3151  -12.7115    0.9239 C   0  0
   18.0531  -16.2862   -1.0877 C   0  0
   15.9429   -9.2478    1.8282 C   0  0
   17.1892   -8.5483    2.3337 C   0  0
   14.8568   -8.9184    2.3187 O   0  0
   18.4248   -7.4379   -0.8167 C   0  0
   18.1335   -6.0491   -0.3281 C   0  0
   19.5121   -7.6386   -1.3712 O   0  0
   17.8002  -17.5030   -0.2463 C   0  0
   18.2099  -16.4056   -2.3090 O   0  0
   21.0414   -8.7873   -5.0064 C   0  0
   22.8472   -9.0559   -5.6584 Br  0  0
   16.2627  -12.3226   -0.9745 H   0  0
   18.0403  -10.6578    0.9476 H   0  0
   16.6475  -10.0000   -1.7240 H   0  0
   19.6195  -10.2239   -1.0142 H   0  0
   19.2420  -12.5271   -0.2362 H   0  0
   17.5451  -14.1002   -2.2447 H   0  0
   19.2993  -14.2820   -2.0017 H   0  0
   16.6078   -8.0671   -0.1210 H   0  0
   21.4740   -9.7473   -3.1099 H   0  0
   20.7059  -10.8143   -4.3103 H   0  0
   13.4778  -12.9769    1.5693 H   0  0
   14.1267  -13.0798   -0.0846 H   0  0
   14.4251  -11.6273    0.8997 H   0  0
   16.9050   -7.7430    3.0111 H   0  0
   17.7418   -8.1346    1.4901 H   0  0
   17.8182   -9.2634    2.8639 H   0  0
   18.9807   -5.4002   -0.5499 H   0  0
   17.9646   -6.0701    0.7485 H   0  0
   17.2433   -5.6669   -0.8277 H   0  0
   17.7908  -18.3889   -0.8813 H   0  0
   16.8370  -17.4053    0.2544 H   0  0
   18.5890  -17.5998    0.4998 H   0  0
   20.3383   -8.9182   -5.8291 H   0  0
   20.9495   -7.7775   -4.6064 H   0  0
  1  2  1  0
  2  3  1  0
  3  4  1  0
  4  5  1  0
  5  6  1  0
  6  1  1  0
  6  7  1  0
  2  8  1  0
  4  9  1  0
  1 10  1  0
  3 11  1  0
  7 12  1  0
  9 13  1  0
 10 14  1  0
 14 15  2  0
 14 16  1  0
 12 17  1  0
  8 18  1  0
 18 19  1  0
 18 20  2  0
 11 21  1  0
 21 22  1  0
 21 23  2  0
 17 24  1  0
 17 25  2  0
 13 26  1  0
 26 27  1  0
  1 28  1  0
  2 29  1  0
  3 30  1  0
  4 31  1  0
  6 32  1  0
  7 33  1  0
  7 34  1  0
 11 35  1  0
 13 36  1  0
 13 37  1  0
 16 38  1  0
 16 39  1  0
 16 40  1  0
 19 41  1  0
 19 42  1  0
 19 43  1  0
 22 44  1  0
 22 45  1  0
 22 46  1  0
 24 47  1  0
 24 48  1  0
 24 49  1  0
 26 50  1  0
 26 51  1  0
M  END
> <Name>
11a Shen et al., 2018

> <Clean Energy>
21.9248733520508

> <Chemical Formula>
C16H24BrNO8S

> <Reference>
Shen et al., 2018

> <Forcefield>
MMFF

> <ForcefieldBase>
MMFF

> <ForcefieldFFML>
<?xml version="1.0" encoding="UTF-8"?>
<!DOCTYPE ffml SYSTEM "Ffml.dtd">
<ffml version="1.0">
<forcefield name="11a Shen et al., 2018-MMFF" derivedFrom="MMFF" base="MMFF">
<atomTypes>
<atomType
 name="C100"
 element="C"
 mass="12.011"
 annotation=""/>
<atomType
 name="O101"
 element="O"
 mass="16"
 annotation=""/>
<atomType
 name="S102"
 element="S"
 mass="32.066"
 annotation=""/>
<atomType
 name="N103"
 element="N"
 mass="14.007"
 annotation=""/>
<atomType
 name="Br104"
 element="Br"
 mass="79.904"
 annotation=""/>
<atomType
 name="H105"
 element="H"
 mass="1.008"
 annotation=""/>
</atomTypes>
<parameters>
</parameters>
</forcefield>
</ffml>

$$$$
11b Shen et al., 2018
  SciTegic07212313593D

 54 54  0  0  0  0            999 V2000
   17.2578  -12.1224   -0.4527 C   0  0  1  0  0  0
   17.3949  -10.6346    0.0677 C   0  0  1  0  0  0
   17.6905   -9.7264   -1.1951 C   0  0  2  0  0  0
   19.0078  -10.2563   -1.8652 C   0  0  1  0  0  0
   18.8695  -11.6341   -2.2401 O   0  0
   18.5987  -12.5030   -1.1304 C   0  0  2  0  0  0
   18.5180  -13.9439   -1.6957 C   0  0
   16.1443  -10.2361    0.7184 O   0  0
   19.3730   -9.3380   -3.3824 S   0  0
   17.0442  -13.0757    0.6561 O   0  0
   17.7232   -8.2908   -0.7532 N   0  0
   18.2615  -14.9136   -0.6791 O   0  0
   20.9906   -9.7888   -4.0347 C   0  0
   15.7418  -13.2101    1.2654 C   0  0
   15.6333  -13.9776    2.2292 O   0  0
   14.4772  -12.5671    0.7279 C   0  0
   18.2120  -16.1793   -1.2704 C   0  0
   16.1309   -9.1291    1.6439 C   0  0
   17.3798   -8.4500    2.1734 C   0  0
   15.0421   -8.7886    2.1207 O   0  0
   18.5428   -7.2642   -1.0820 C   0  0
   18.2916   -5.9206   -0.4642 C   0  0
   19.4882   -7.3643   -1.8653 O   0  0
   17.9503  -17.3948   -0.4302 C   0  0
   18.3852  -16.3004   -2.4893 O   0  0
   21.3864   -8.6903   -5.0387 C   0  0
   22.8137   -8.9118   -5.5578 C   0  0
   23.2844   -7.4363   -6.7284 Br  0  0
   16.4412  -12.1943   -1.1711 H   0  0
   18.2202  -10.5644    0.7763 H   0  0
   16.8719   -9.8484   -1.9044 H   0  0
   19.8385  -10.1509   -1.1674 H   0  0
   19.4095  -12.4371   -0.4049 H   0  0
   17.7145  -13.9869   -2.4310 H   0  0
   19.4656  -14.1844   -2.1776 H   0  0
   16.9592   -8.0323   -0.0502 H   0  0
   21.7204   -9.8392   -3.2266 H   0  0
   20.9368  -10.7546   -4.5371 H   0  0
   13.6361  -12.8251    1.3712 H   0  0
   14.2859  -12.9294   -0.2822 H   0  0
   14.5999  -11.4842    0.7078 H   0  0
   17.0967   -7.6466    2.8534 H   0  0
   17.9499   -8.0369    1.3412 H   0  0
   17.9915   -9.1778    2.7065 H   0  0
   19.0320   -5.2085   -0.8284 H   0  0
   18.3665   -5.9991    0.6204 H   0  0
   17.2934   -5.5765   -0.7350 H   0  0
   17.9489  -18.2817   -1.0638 H   0  0
   16.9812  -17.2970    0.0592 H   0  0
   18.7304  -17.4897    0.3252 H   0  0
   20.6937   -8.7095   -5.8801 H   0  0
   21.3328   -7.7198   -4.5453 H   0  0
   23.5078   -8.9498   -4.7182 H   0  0
   22.8613   -9.8493   -6.1119 H   0  0
  1  2  1  0
  2  3  1  0
  3  4  1  0
  4  5  1  0
  5  6  1  0
  6  1  1  0
  6  7  1  0
  2  8  1  0
  4  9  1  0
  1 10  1  0
  3 11  1  0
  7 12  1  0
  9 13  1  0
 10 14  1  0
 14 15  2  0
 14 16  1  0
 12 17  1  0
  8 18  1  0
 18 19  1  0
 18 20  2  0
 11 21  1  0
 21 22  1  0
 21 23  2  0
 17 24  1  0
 17 25  2  0
 13 26  1  0
 26 27  1  0
 27 28  1  0
  1 29  1  0
  2 30  1  0
  3 31  1  0
  4 32  1  0
  6 33  1  0
  7 34  1  0
  7 35  1  0
 11 36  1  0
 13 37  1  0
 13 38  1  0
 16 39  1  0
 16 40  1  0
 16 41  1  0
 19 42  1  0
 19 43  1  0
 19 44  1  0
 22 45  1  0
 22 46  1  0
 22 47  1  0
 24 48  1  0
 24 49  1  0
 24 50  1  0
 26 51  1  0
 26 52  1  0
 27 53  1  0
 27 54  1  0
M  END
> <Name>
11b Shen et al., 2018

> <Clean Energy>
23.491886138916

> <Chemical Formula>
C17H26BrNO8S

> <Reference>
Shen et al., 2018

> <Forcefield>
MMFF

> <ForcefieldBase>
MMFF

> <ForcefieldFFML>
<?xml version="1.0" encoding="UTF-8"?>
<!DOCTYPE ffml SYSTEM "Ffml.dtd">
<ffml version="1.0">
<forcefield name="11b Shen et al., 2018-MMFF" derivedFrom="MMFF" base="MMFF">
<atomTypes>
<atomType
 name="C100"
 element="C"
 mass="12.011"
 annotation=""/>
<atomType
 name="O101"
 element="O"
 mass="16"
 annotation=""/>
<atomType
 name="S102"
 element="S"
 mass="32.066"
 annotation=""/>
<atomType
 name="N103"
 element="N"
 mass="14.007"
 annotation=""/>
<atomType
 name="Br104"
 element="Br"
 mass="79.904"
 annotation=""/>
<atomType
 name="H105"
 element="H"
 mass="1.008"
 annotation=""/>
</atomTypes>
<parameters>
</parameters>
</forcefield>
</ffml>

$$$$
11c Shen et al., 2018
  SciTegic07212313593D

 60 60  0  0  0  0            999 V2000
   17.6670  -11.8893   -0.8899 C   0  0  1  0  0  0
   17.8195  -10.4075   -0.3559 C   0  0  1  0  0  0
   18.1219   -9.4894   -1.6103 C   0  0  2  0  0  0
   19.4394  -10.0278   -2.2854 C   0  0  1  0  0  0
   19.2837  -11.4016   -2.6727 O   0  0
   19.0093  -12.2749   -1.5651 C   0  0  2  0  0  0
   18.9200  -13.7137   -2.1360 C   0  0
   16.5641  -10.0056    0.2918 O   0  0
   19.8120   -9.1115   -3.8007 S   0  0
   17.4507  -12.8479    0.2167 O   0  0
   18.1812   -8.0652   -1.1342 N   0  0
   18.6609  -14.6815   -1.1170 O   0  0
   21.4130   -9.5757   -4.4792 C   0  0
   16.1477  -12.9782    0.8245 C   0  0
   16.0368  -13.7504    1.7861 O   0  0
   14.8863  -12.3282    0.2912 C   0  0
   18.6084  -15.9492   -1.7030 C   0  0
   16.5496   -8.9055    1.2246 C   0  0
   17.7952   -8.2343    1.7682 C   0  0
   15.4564   -8.5650    1.6954 O   0  0
   18.9153   -7.0042   -1.5372 C   0  0
   18.7183   -5.6886   -0.8469 C   0  0
   19.7447   -7.0497   -2.4475 O   0  0
   18.3435  -17.1601   -0.8567 C   0  0
   18.7818  -16.0764   -2.9209 O   0  0
   21.7724   -8.5057   -5.5261 C   0  0
   23.1867   -8.7293   -6.0756 C   0  0
   23.5129   -7.5883   -7.0576 C   0  0
   24.9368   -7.7658   -7.6087 C   0  0
   25.3348   -6.3183   -8.8375 Br  0  0
   16.8501  -11.9506   -1.6089 H   0  0
   18.6426  -10.3499    0.3563 H   0  0
   17.3006   -9.5864   -2.3205 H   0  0
   20.2720   -9.9361   -1.5879 H   0  0
   19.8192  -12.2155   -0.8381 H   0  0
   18.1143  -13.7514   -2.8692 H   0  0
   19.8650  -13.9586   -2.6209 H   0  0
   17.5170   -7.8506   -0.3232 H   0  0
   22.1642   -9.5969   -3.6897 H   0  0
   21.3519  -10.5570   -4.9498 H   0  0
   14.0446  -12.5856    0.9341 H   0  0
   14.6927  -12.6853   -0.7203 H   0  0
   15.0133  -11.2457    0.2758 H   0  0
   17.5089   -7.4349    2.4516 H   0  0
   18.3730   -7.8170    0.9435 H   0  0
   18.4006   -8.9676    2.3009 H   0  0
   19.3807   -4.9436   -1.2877 H   0  0
   18.9477   -5.7960    0.2133 H   0  0
   17.6830   -5.3679   -0.9635 H   0  0
   18.3399  -18.0501   -1.4859 H   0  0
   17.3746  -17.0575   -0.3679 H   0  0
   19.1233  -17.2534   -0.1008 H   0  0
   21.0583   -8.5571   -6.3480 H   0  0
   21.7220   -7.5211   -5.0613 H   0  0
   23.9048   -8.7256   -5.2556 H   0  0
   23.2325   -9.6863   -6.5952 H   0  0
   22.8009   -7.6067   -7.8827 H   0  0
   23.4428   -6.6328   -6.5378 H   0  0
   25.6504   -7.7503   -6.7848 H   0  0
   25.0077   -8.7185   -8.1335 H   0  0
  1  2  1  0
  2  3  1  0
  3  4  1  0
  4  5  1  0
  5  6  1  0
  6  1  1  0
  6  7  1  0
  2  8  1  0
  4  9  1  0
  1 10  1  0
  3 11  1  0
  7 12  1  0
  9 13  1  0
 10 14  1  0
 14 15  2  0
 14 16  1  0
 12 17  1  0
  8 18  1  0
 18 19  1  0
 18 20  2  0
 11 21  1  0
 21 22  1  0
 21 23  2  0
 17 24  1  0
 17 25  2  0
 13 26  1  0
 26 27  1  0
 27 28  1  0
 28 29  1  0
 29 30  1  0
  1 31  1  0
  2 32  1  0
  3 33  1  0
  4 34  1  0
  6 35  1  0
  7 36  1  0
  7 37  1  0
 11 38  1  0
 13 39  1  0
 13 40  1  0
 16 41  1  0
 16 42  1  0
 16 43  1  0
 19 44  1  0
 19 45  1  0
 19 46  1  0
 22 47  1  0
 22 48  1  0
 22 49  1  0
 24 50  1  0
 24 51  1  0
 24 52  1  0
 26 53  1  0
 26 54  1  0
 27 55  1  0
 27 56  1  0
 28 57  1  0
 28 58  1  0
 29 59  1  0
 29 60  1  0
M  END
> <Name>
11c Shen et al., 2018

> <Clean Energy>
23.3884391784668

> <Chemical Formula>
C19H30BrNO8S

> <Reference>
Shen et al., 2018

> <Forcefield>
MMFF

> <ForcefieldBase>
MMFF

> <ForcefieldFFML>
<?xml version="1.0" encoding="UTF-8"?>
<!DOCTYPE ffml SYSTEM "Ffml.dtd">
<ffml version="1.0">
<forcefield name="11c Shen et al., 2018-MMFF" derivedFrom="MMFF" base="MMFF">
<atomTypes>
<atomType
 name="C100"
 element="C"
 mass="12.011"
 annotation=""/>
<atomType
 name="O101"
 element="O"
 mass="16"
 annotation=""/>
<atomType
 name="S102"
 element="S"
 mass="32.066"
 annotation=""/>
<atomType
 name="N103"
 element="N"
 mass="14.007"
 annotation=""/>
<atomType
 name="Br104"
 element="Br"
 mass="79.904"
 annotation=""/>
<atomType
 name="H105"
 element="H"
 mass="1.008"
 annotation=""/>
</atomTypes>
<parameters>
</parameters>
</forcefield>
</ffml>

$$$$
11d Shen et al., 2018
  SciTegic07212313593D

 63 63  0  0  0  0            999 V2000
   17.8952  -11.7823   -1.1355 C   0  0  1  0  0  0
   18.0610  -10.3079   -0.5881 C   0  0  1  0  0  0
   18.3920   -9.3780   -1.8262 C   0  0  2  0  0  0
   19.7072   -9.9322   -2.4963 C   0  0  1  0  0  0
   19.5294  -11.2968   -2.9062 O   0  0
   19.2388  -12.1761   -1.8048 C   0  0  2  0  0  0
   19.1420  -13.6117   -2.3807 C   0  0
   16.8035   -9.8962    0.0519 O   0  0
   20.1114   -8.9976   -3.9875 S   0  0
   17.6667  -12.7455   -0.0337 O   0  0
   18.4968   -7.9738   -1.3096 N   0  0
   18.8743  -14.5774   -1.3609 O   0  0
   21.6897   -9.4657   -4.7036 C   0  0
   16.3640  -12.8685    0.5732 C   0  0
   16.2480  -13.6441    1.5317 O   0  0
   15.1083  -12.2065    0.0432 C   0  0
   18.8226  -15.8467   -1.9418 C   0  0
   16.7843   -8.8026    0.9911 C   0  0
   18.0261   -8.1430    1.5555 C   0  0
   15.6867   -8.4584    1.4496 O   0  0
   19.0899   -6.8689   -1.8167 C   0  0
   18.9963   -5.5878   -1.0426 C   0  0
   19.7004   -6.8475   -2.8803 O   0  0
   18.5510  -17.0534   -1.0915 C   0  0
   19.0030  -15.9794   -3.1579 O   0  0
   22.0272   -8.3621   -5.7235 C   0  0
   23.3988   -8.5930   -6.3628 C   0  0
   23.6836   -7.4236   -7.3228 C   0  0
   25.0347   -7.6416   -8.0171 C   0  0
   25.3022   -6.4791   -8.9887 C   0  0
   26.9758   -6.7920   -9.9159 Br  0  0
   17.0811  -11.8307   -1.8586 H   0  0
   18.8761  -10.2690    0.1345 H   0  0
   17.5739   -9.4344   -2.5443 H   0  0
   20.5337   -9.8675   -1.7886 H   0  0
   20.0439  -12.1268   -1.0717 H   0  0
   18.3378  -13.6432   -3.1157 H   0  0
   20.0865  -13.8620   -2.8639 H   0  0
   18.0141   -7.8174   -0.3676 H   0  0
   22.4572   -9.5171   -3.9314 H   0  0
   21.6095  -10.4319   -5.2018 H   0  0
   14.2646  -12.4603    0.6850 H   0  0
   14.9118  -12.5574   -0.9699 H   0  0
   15.2437  -11.1250    0.0328 H   0  0
   17.7356   -7.3463    2.2402 H   0  0
   18.6175   -7.7240    0.7413 H   0  0
   18.6198   -8.8835    2.0915 H   0  0
   19.5209   -4.7983   -1.5806 H   0  0
   19.4509   -5.7217   -0.0610 H   0  0
   17.9488   -5.3109   -0.9227 H   0  0
   18.5490  -17.9462   -1.7168 H   0  0
   17.5798  -16.9469   -0.6082 H   0  0
   19.3267  -17.1448   -0.3311 H   0  0
   21.2678   -8.3577   -6.5054 H   0  0
   22.0310   -7.3982   -5.2145 H   0  0
   24.1652   -8.6301   -5.5887 H   0  0
   23.3947   -9.5321   -6.9161 H   0  0
   22.8950   -7.3710   -8.0734 H   0  0
   23.7123   -6.4911   -6.7592 H   0  0
   25.8263   -7.6796   -7.2688 H   0  0
   25.0120   -8.5803   -8.5706 H   0  0
   24.4906   -6.4164   -9.7136 H   0  0
   25.3643   -5.5450   -8.4304 H   0  0
  1  2  1  0
  2  3  1  0
  3  4  1  0
  4  5  1  0
  5  6  1  0
  6  1  1  0
  6  7  1  0
  2  8  1  0
  4  9  1  0
  1 10  1  0
  3 11  1  0
  7 12  1  0
  9 13  1  0
 10 14  1  0
 14 15  2  0
 14 16  1  0
 12 17  1  0
  8 18  1  0
 18 19  1  0
 18 20  2  0
 11 21  1  0
 21 22  1  0
 21 23  2  0
 17 24  1  0
 17 25  2  0
 13 26  1  0
 26 27  1  0
 27 28  1  0
 28 29  1  0
 29 30  1  0
 30 31  1  0
  1 32  1  0
  2 33  1  0
  3 34  1  0
  4 35  1  0
  6 36  1  0
  7 37  1  0
  7 38  1  0
 11 39  1  0
 13 40  1  0
 13 41  1  0
 16 42  1  0
 16 43  1  0
 16 44  1  0
 19 45  1  0
 19 46  1  0
 19 47  1  0
 22 48  1  0
 22 49  1  0
 22 50  1  0
 24 51  1  0
 24 52  1  0
 24 53  1  0
 26 54  1  0
 26 55  1  0
 27 56  1  0
 27 57  1  0
 28 58  1  0
 28 59  1  0
 29 60  1  0
 29 61  1  0
 30 62  1  0
 30 63  1  0
M  END
> <Name>
11d Shen et al., 2018

> <Clean Energy>
23.1915893554688

> <Chemical Formula>
C20H32BrNO8S

> <Reference>
Shen et al., 2018

> <Forcefield>
MMFF

> <ForcefieldBase>
MMFF

> <ForcefieldFFML>
<?xml version="1.0" encoding="UTF-8"?>
<!DOCTYPE ffml SYSTEM "Ffml.dtd">
<ffml version="1.0">
<forcefield name="11d Shen et al., 2018-MMFF" derivedFrom="MMFF" base="MMFF">
<atomTypes>
<atomType
 name="C100"
 element="C"
 mass="12.011"
 annotation=""/>
<atomType
 name="O101"
 element="O"
 mass="16"
 annotation=""/>
<atomType
 name="S102"
 element="S"
 mass="32.066"
 annotation=""/>
<atomType
 name="N103"
 element="N"
 mass="14.007"
 annotation=""/>
<atomType
 name="Br104"
 element="Br"
 mass="79.904"
 annotation=""/>
<atomType
 name="H105"
 element="H"
 mass="1.008"
 annotation=""/>
</atomTypes>
<parameters>
</parameters>
</forcefield>
</ffml>

$$$$
14a Shen et al., 2018
  SciTegic07212313593D

 79 82  0  0  0  0            999 V2000
   13.8716  -12.0813    3.3828 C   0  0  1  0  0  0
   14.4199  -10.6894    3.9418 C   0  0  1  0  0  0
   14.6400   -9.7276    2.7527 C   0  0  2  0  0  0
   15.6991  -10.3836    1.7919 C   0  0  1  0  0  0
   15.2364  -11.6636    1.3134 O   0  0
   15.0139  -12.5895    2.4221 C   0  0  2  0  0  0
   14.6944  -13.9923    1.8376 C   0  0
   13.6635   -9.9842    5.0125 O   0  0
   16.1027   -9.2591    0.3865 S   0  0
   13.7172  -13.0850    4.4488 O   0  0
   15.1324   -8.4901    3.3230 N   0  0
   14.5648  -14.9584    2.8998 O   0  0
   17.5684   -9.7597   -0.5957 C   0  0
   12.4773  -13.1365    5.1929 C   0  0
   12.3856  -13.9490    6.1186 O   0  0
   11.2323  -12.3694    4.8144 C   0  0
   14.6206  -16.2589    2.3824 C   0  0
   12.4318   -9.3408    4.8482 C   0  0
   11.8875   -8.5847    6.0396 C   0  0
   11.8119   -9.3400    3.7823 O   0  0
   15.1698   -7.3202    2.6810 C   0  0
   15.6309   -6.1036    3.4211 C   0  0
   14.8180   -7.2192    1.5006 O   0  0
   14.5009  -17.4423    3.3031 C   0  0
   14.7953  -16.4390    1.1718 O   0  0
   18.0377   -8.5152   -1.4453 C   0  0
   19.2897   -8.7829   -2.2210 N   0  0
   19.7537   -7.5368   -2.9316 C   0  0
   21.0388   -7.8443   -3.7809 C   0  0
   21.6812   -6.7186   -4.5419 N   0  0
   21.4525   -5.3199   -4.2931 C   0  0
   22.1819   -4.3239   -5.0908 C   0  0
   23.1141   -4.7560   -6.1146 C   0  0
   23.3103   -6.0507   -6.3476 C   0  0
   22.5950   -7.0742   -5.5631 C   0  0
   23.8284   -3.7531   -6.8906 C   0  0
   24.6913   -4.1207   -7.8357 C   0  0
   24.9154   -5.5435   -8.0987 C   0  0
   24.2600   -6.4626   -7.3894 C   0  0
   21.9988   -3.0202   -4.8702 C   0  0
   22.7263   -1.9970   -5.6579 C   0  0
   23.5920   -2.3449   -6.6114 C   0  0
   22.8111   -8.2684   -5.7942 O   0  0
   20.6818   -4.9208   -3.4145 O   0  0
   12.9372  -11.9426    2.8390 H   0  0
   15.4082  -10.8952    4.3530 H   0  0
   13.7023   -9.5559    2.2241 H   0  0
   16.6129  -10.5489    2.3625 H   0  0
   15.9369  -12.6614    2.9973 H   0  0
   13.7597  -13.9446    1.2789 H   0  0
   15.5015  -14.2965    1.1713 H   0  0
   15.4916   -8.5157    4.3306 H   0  0
   18.3704  -10.0746    0.0720 H   0  0
   17.3042  -10.5822   -1.2604 H   0  0
   10.4417  -12.5809    5.5343 H   0  0
   10.9071  -12.6721    3.8190 H   0  0
   11.4486  -11.3011    4.8163 H   0  0
   10.9299   -8.1344    5.7783 H   0  0
   12.5902   -7.8022    6.3259 H   0  0
   11.7495   -9.2718    6.8745 H   0  0
   15.6013   -5.2403    2.7564 H   0  0
   16.6515   -6.2563    3.7722 H   0  0
   14.9762   -5.9270    4.2745 H   0  0
   14.5665  -18.3627    2.7230 H   0  0
   13.5413  -17.4063    3.8190 H   0  0
   15.3078  -17.4166    4.0354 H   0  0
   17.2442   -8.2516   -2.1447 H   0  0
   18.2188   -7.6798   -0.7689 H   0  0
   19.0980   -9.5483   -2.9436 H   0  0
   18.9619   -7.1828   -3.5918 H   0  0
   19.9845   -6.7671   -2.1951 H   0  0
   21.7896   -8.2399   -3.0968 H   0  0
   20.7686   -8.6108   -4.5073 H   0  0
   25.2281   -3.3662   -8.4107 H   0  0
   25.6174   -5.8511   -8.8737 H   0  0
   24.4293   -7.5218   -7.5830 H   0  0
   21.3007   -2.7021   -4.0958 H   0  0
   22.5508   -0.9406   -5.4543 H   0  0
   24.1195   -1.5780   -7.1785 H   0  0
  1  2  1  0
  2  3  1  0
  3  4  1  0
  4  5  1  0
  5  6  1  0
  6  1  1  0
  6  7  1  0
  2  8  1  0
  4  9  1  0
  1 10  1  0
  3 11  1  0
  7 12  1  0
  9 13  1  0
 10 14  1  0
 14 15  2  0
 14 16  1  0
 12 17  1  0
  8 18  1  0
 18 19  1  0
 18 20  2  0
 11 21  1  0
 21 22  1  0
 21 23  2  0
 17 24  1  0
 17 25  2  0
 13 26  1  0
 26 27  1  0
 27 28  1  0
 28 29  1  0
 29 30  1  0
 30 31  1  0
 31 32  1  0
 32 33  1  0
 33 34  2  0
 34 35  1  0
 35 30  1  0
 33 36  1  0
 36 37  2  0
 37 38  1  0
 38 39  2  0
 39 34  1  0
 32 40  2  0
 40 41  1  0
 41 42  2  0
 42 36  1  0
 35 43  2  0
 31 44  2  0
  1 45  1  0
  2 46  1  0
  3 47  1  0
  4 48  1  0
  6 49  1  0
  7 50  1  0
  7 51  1  0
 11 52  1  0
 13 53  1  0
 13 54  1  0
 16 55  1  0
 16 56  1  0
 16 57  1  0
 19 58  1  0
 19 59  1  0
 19 60  1  0
 22 61  1  0
 22 62  1  0
 22 63  1  0
 24 64  1  0
 24 65  1  0
 24 66  1  0
 26 67  1  0
 26 68  1  0
 27 69  1  0
 28 70  1  0
 28 71  1  0
 29 72  1  0
 29 73  1  0
 37 74  1  0
 38 75  1  0
 39 76  1  0
 40 77  1  0
 41 78  1  0
 42 79  1  0
M  END
> <Name>
14a Shen et al., 2018

> <Clean Energy>
25.5435333251953

> <Chemical Formula>
C30H35N3O10S

> <Reference>
Shen et al., 2018

> <Forcefield>
MMFF

> <ForcefieldBase>
MMFF

> <ForcefieldFFML>
<?xml version="1.0" encoding="UTF-8"?>
<!DOCTYPE ffml SYSTEM "Ffml.dtd">
<ffml version="1.0">
<forcefield name="14a Shen et al., 2018-MMFF" derivedFrom="MMFF" base="MMFF">
<atomTypes>
<atomType
 name="C100"
 element="C"
 mass="12.011"
 annotation=""/>
<atomType
 name="O101"
 element="O"
 mass="16"
 annotation=""/>
<atomType
 name="S102"
 element="S"
 mass="32.066"
 annotation=""/>
<atomType
 name="N103"
 element="N"
 mass="14.007"
 annotation=""/>
<atomType
 name="H104"
 element="H"
 mass="1.008"
 annotation=""/>
</atomTypes>
<parameters>
</parameters>
</forcefield>
</ffml>

$$$$
14b Shen et al., 2018
  SciTegic07212313593D

 82 85  0  0  0  0            999 V2000
   14.3906  -12.9343    2.7943 C   0  0  1  0  0  0
   14.9471  -11.5455    3.3537 C   0  0  1  0  0  0
   15.1852  -10.5872    2.1619 C   0  0  2  0  0  0
   16.2417  -11.2578    1.2113 C   0  0  1  0  0  0
   15.7658  -12.5306    0.7309 O   0  0
   15.5310  -13.4519    1.8375 C   0  0  2  0  0  0
   15.2029  -14.8510    1.2515 C   0  0
   14.1840  -10.8369    4.4165 O   0  0
   16.6779  -10.1456   -0.1944 S   0  0
   14.2285  -13.9381    3.8601 O   0  0
   15.6959   -9.3553    2.7180 N   0  0
   15.0671  -15.8160    2.3125 O   0  0
   18.1357  -10.7066   -1.1582 C   0  0
   12.9904  -13.9869    4.6048 C   0  0
   12.8979  -14.8008    5.5294 O   0  0
   11.7481  -13.2164    4.2285 C   0  0
   15.1275  -17.1157    1.7950 C   0  0
   12.9548  -10.1927    4.2301 C   0  0
   12.3860   -9.4380    5.4106 C   0  0
   12.3534  -10.1955    3.1535 O   0  0
   15.6940   -8.1914    2.0655 C   0  0
   16.1863   -6.9635    2.7663 C   0  0
   15.2846   -8.1094    0.9018 O   0  0
   15.0071  -18.2994    2.7148 C   0  0
   15.3088  -17.2949    0.5852 O   0  0
   18.6554   -9.5076   -2.0410 C   0  0
   19.8927   -9.8617   -2.8065 N   0  0
   20.3954   -8.6807   -3.5921 C   0  0
   21.5969   -9.1109   -4.4964 C   0  0
   22.1407   -7.9298   -5.3869 C   0  0
   23.1893   -8.2842   -6.4147 N   0  0
   23.8668   -7.2245   -7.0677 C   0  0
   24.8574   -7.5141   -8.1117 C   0  0
   25.1725   -8.8881   -8.4394 C   0  0
   24.5285   -9.8905   -7.8461 C   0  0
   23.5383   -9.6413   -6.7902 C   0  0
   26.1390   -9.1611   -9.4923 C   0  0
   26.4377  -10.4157   -9.8228 C   0  0
   25.7531  -11.5233   -9.1560 C   0  0
   24.8576  -11.2727   -8.2026 C   0  0
   25.4980   -6.5207   -8.7337 C   0  0
   26.4998   -6.7959   -9.7924 C   0  0
   26.8093   -8.0455  -10.1420 C   0  0
   22.9934  -10.6294   -6.2899 O   0  0
   23.6030   -6.0505   -6.7842 O   0  0
   13.4582  -12.7901    2.2485 H   0  0
   15.9298  -11.7584    3.7746 H   0  0
   14.2529  -10.4058    1.6271 H   0  0
   17.1476  -11.4361    1.7906 H   0  0
   16.4514  -13.5317    2.4159 H   0  0
   14.2687  -14.7969    0.6926 H   0  0
   16.0083  -15.1598    0.5852 H   0  0
   16.0985   -9.3776    3.7091 H   0  0
   18.9236  -11.0276   -0.4767 H   0  0
   17.8506  -11.5385   -1.8022 H   0  0
   10.9576  -13.4263    4.9490 H   0  0
   11.4210  -13.5172    3.2332 H   0  0
   11.9674  -12.1487    4.2312 H   0  0
   11.4338   -8.9880    5.1301 H   0  0
   13.0824   -8.6554    5.7119 H   0  0
   12.2313  -10.1259    6.2419 H   0  0
   16.1164   -6.1083    2.0942 H   0  0
   17.2250   -7.1065    3.0646 H   0  0
   15.5766   -6.7804    3.6511 H   0  0
   15.0768  -19.2195    2.1348 H   0  0
   14.0456  -18.2656    3.2273 H   0  0
   15.8114  -18.2722    3.4500 H   0  0
   17.8739   -9.2280   -2.7476 H   0  0
   18.8761   -8.6623   -1.3893 H   0  0
   19.6700  -10.6618   -3.4811 H   0  0
   19.5914   -8.2962   -4.2196 H   0  0
   20.7232   -7.9023   -2.9031 H   0  0
   22.4050   -9.4661   -3.8569 H   0  0
   21.2690   -9.9186   -5.1508 H   0  0
   21.2918   -7.4973   -5.9165 H   0  0
   22.5714   -7.1837   -4.7191 H   0  0
   27.1889  -10.6167  -10.5867 H   0  0
   25.9755  -12.5521   -9.4391 H   0  0
   24.3682  -12.0984   -7.6860 H   0  0
   25.2805   -5.4888   -8.4582 H   0  0
   26.9918   -5.9623  -10.2937 H   0  0
   27.5603   -8.2296  -10.9102 H   0  0
  1  2  1  0
  2  3  1  0
  3  4  1  0
  4  5  1  0
  5  6  1  0
  6  1  1  0
  6  7  1  0
  2  8  1  0
  4  9  1  0
  1 10  1  0
  3 11  1  0
  7 12  1  0
  9 13  1  0
 10 14  1  0
 14 15  2  0
 14 16  1  0
 12 17  1  0
  8 18  1  0
 18 19  1  0
 18 20  2  0
 11 21  1  0
 21 22  1  0
 21 23  2  0
 17 24  1  0
 17 25  2  0
 13 26  1  0
 26 27  1  0
 27 28  1  0
 28 29  1  0
 29 30  1  0
 30 31  1  0
 31 32  1  0
 32 33  1  0
 33 34  1  0
 34 35  2  0
 35 36  1  0
 36 31  1  0
 34 37  1  0
 37 38  2  0
 38 39  1  0
 39 40  2  0
 40 35  1  0
 33 41  2  0
 41 42  1  0
 42 43  2  0
 43 37  1  0
 36 44  2  0
 32 45  2  0
  1 46  1  0
  2 47  1  0
  3 48  1  0
  4 49  1  0
  6 50  1  0
  7 51  1  0
  7 52  1  0
 11 53  1  0
 13 54  1  0
 13 55  1  0
 16 56  1  0
 16 57  1  0
 16 58  1  0
 19 59  1  0
 19 60  1  0
 19 61  1  0
 22 62  1  0
 22 63  1  0
 22 64  1  0
 24 65  1  0
 24 66  1  0
 24 67  1  0
 26 68  1  0
 26 69  1  0
 27 70  1  0
 28 71  1  0
 28 72  1  0
 29 73  1  0
 29 74  1  0
 30 75  1  0
 30 76  1  0
 38 77  1  0
 39 78  1  0
 40 79  1  0
 41 80  1  0
 42 81  1  0
 43 82  1  0
M  END
> <Name>
14b Shen et al., 2018

> <Clean Energy>
24.6357688903809

> <Chemical Formula>
C31H37N3O10S

> <Reference>
Shen et al., 2018

> <Forcefield>
MMFF

> <ForcefieldBase>
MMFF

> <ForcefieldFFML>
<?xml version="1.0" encoding="UTF-8"?>
<!DOCTYPE ffml SYSTEM "Ffml.dtd">
<ffml version="1.0">
<forcefield name="14b Shen et al., 2018-MMFF" derivedFrom="MMFF" base="MMFF">
<atomTypes>
<atomType
 name="C100"
 element="C"
 mass="12.011"
 annotation=""/>
<atomType
 name="O101"
 element="O"
 mass="16"
 annotation=""/>
<atomType
 name="S102"
 element="S"
 mass="32.066"
 annotation=""/>
<atomType
 name="N103"
 element="N"
 mass="14.007"
 annotation=""/>
<atomType
 name="H104"
 element="H"
 mass="1.008"
 annotation=""/>
</atomTypes>
<parameters>
</parameters>
</forcefield>
</ffml>

$$$$
14c Shen et al., 2018
  SciTegic07212313593D

 85 88  0  0  0  0            999 V2000
   14.5766  -11.7948    2.6343 C   0  0  1  0  0  0
   15.1290  -10.4048    3.1933 C   0  0  1  0  0  0
   15.3595   -9.4441    2.0022 C   0  0  2  0  0  0
   16.4232  -10.1051    1.0463 C   0  0  1  0  0  0
   15.9542  -11.3840    0.5672 O   0  0
   15.7208  -12.3082    1.6776 C   0  0  2  0  0  0
   15.3975  -13.7107    1.0940 C   0  0
   14.3711   -9.6966    4.2618 O   0  0
   16.8507   -8.9791   -0.3610 S   0  0
   14.4155  -12.7979    3.7015 O   0  0
   15.8568   -8.2103    2.5681 N   0  0
   15.2608  -14.6747    2.1575 O   0  0
   18.3229   -9.4930   -1.3423 C   0  0
   13.1739  -12.8463    4.4435 C   0  0
   13.0787  -13.6582    5.3696 O   0  0
   11.9317  -12.0768    4.0623 C   0  0
   15.3156  -15.9764    1.6428 C   0  0
   13.1403   -9.0522    4.0955 C   0  0
   12.5943   -8.2954    5.2862 C   0  0
   12.5214   -9.0526    3.0291 O   0  0
   15.8712   -7.0430    1.9222 C   0  0
   16.3413   -5.8198    2.6457 C   0  0
   15.4919   -6.9518    0.7493 O   0  0
   15.1903  -17.1580    2.5652 C   0  0
   15.4946  -16.1591    0.4332 O   0  0
   18.8067   -8.2657   -2.2205 C   0  0
   20.0551   -8.5609   -3.0104 N   0  0
   20.5137   -7.3347   -3.7691 C   0  0
   21.7648   -7.6528   -4.6739 C   0  0
   22.2683   -6.3793   -5.4592 C   0  0
   23.4858   -6.7532   -6.3952 C   0  0
   24.1558   -5.6527   -7.1811 N   0  0
   23.9549   -4.2471   -6.9537 C   0  0
   24.7006   -3.2761   -7.7604 C   0  0
   25.6270   -3.7316   -8.7778 C   0  0
   25.8026   -5.0313   -8.9998 C   0  0
   25.0671   -6.0387   -8.2035 C   0  0
   26.3570   -2.7449   -9.5611 C   0  0
   27.2160   -3.1319  -10.5017 C   0  0
   27.4195   -4.5600  -10.7533 C   0  0
   26.7495   -5.4648  -10.0380 C   0  0
   24.5367   -1.9685   -7.5506 C   0  0
   25.2787   -0.9629   -8.3441 C   0  0
   26.1406   -1.3310   -9.2931 C   0  0
   25.2640   -7.2388   -8.4227 O   0  0
   23.1922   -3.8182   -6.0831 O   0  0
   13.6444  -11.6532    2.0875 H   0  0
   16.1146  -10.6150    3.6087 H   0  0
   14.4254   -9.2686    1.4685 H   0  0
   17.3311  -10.2771    1.6245 H   0  0
   16.6409  -12.3840    2.2569 H   0  0
   14.4647  -13.6602    0.5323 H   0  0
   16.2055  -14.0191    0.4306 H   0  0
   16.2372   -8.2348    3.5679 H   0  0
   19.1232   -9.7990   -0.6685 H   0  0
   18.0565  -10.3261   -1.9928 H   0  0
   11.1393  -12.2860    4.7809 H   0  0
   11.6076  -12.3793    3.0665 H   0  0
   12.1504  -11.0089    4.0640 H   0  0
   11.6376   -7.8443    5.0231 H   0  0
   13.2972   -7.5135    5.5738 H   0  0
   12.4542   -8.9824    6.1208 H   0  0
   16.2896   -4.9598    1.9781 H   0  0
   17.3711   -5.9638    2.9727 H   0  0
   15.7061   -5.6438    3.5138 H   0  0
   15.2561  -18.0796    1.9870 H   0  0
   14.2291  -17.1191    3.0778 H   0  0
   15.9949  -17.1327    3.3002 H   0  0
   18.0102   -8.0017   -2.9163 H   0  0
   19.0060   -7.4228   -1.5587 H   0  0
   19.8519   -9.3480   -3.7061 H   0  0
   19.6985   -6.9839   -4.4019 H   0  0
   20.7814   -6.5556   -3.0553 H   0  0
   22.5732   -8.0173   -4.0402 H   0  0
   21.4908   -8.4240   -5.3938 H   0  0
   21.4537   -5.9885   -6.0690 H   0  0
   22.5850   -5.6193   -4.7448 H   0  0
   24.2491   -7.2077   -5.7635 H   0  0
   23.1243   -7.4879   -7.1147 H   0  0
   27.7650   -2.3897  -11.0813 H   0  0
   28.1181   -4.8836  -11.5249 H   0  0
   26.9042   -6.5277  -10.2235 H   0  0
   23.8426   -1.6341   -6.7796 H   0  0
   25.1177    0.0975   -8.1494 H   0  0
   26.6803   -0.5763   -9.8653 H   0  0
  1  2  1  0
  2  3  1  0
  3  4  1  0
  4  5  1  0
  5  6  1  0
  6  1  1  0
  6  7  1  0
  2  8  1  0
  4  9  1  0
  1 10  1  0
  3 11  1  0
  7 12  1  0
  9 13  1  0
 10 14  1  0
 14 15  2  0
 14 16  1  0
 12 17  1  0
  8 18  1  0
 18 19  1  0
 18 20  2  0
 11 21  1  0
 21 22  1  0
 21 23  2  0
 17 24  1  0
 17 25  2  0
 13 26  1  0
 26 27  1  0
 27 28  1  0
 28 29  1  0
 29 30  1  0
 30 31  1  0
 31 32  1  0
 32 33  1  0
 33 34  1  0
 34 35  1  0
 35 36  2  0
 36 37  1  0
 37 32  1  0
 35 38  1  0
 38 39  2  0
 39 40  1  0
 40 41  2  0
 41 36  1  0
 34 42  2  0
 42 43  1  0
 43 44  2  0
 44 38  1  0
 37 45  2  0
 33 46  2  0
  1 47  1  0
  2 48  1  0
  3 49  1  0
  4 50  1  0
  6 51  1  0
  7 52  1  0
  7 53  1  0
 11 54  1  0
 13 55  1  0
 13 56  1  0
 16 57  1  0
 16 58  1  0
 16 59  1  0
 19 60  1  0
 19 61  1  0
 19 62  1  0
 22 63  1  0
 22 64  1  0
 22 65  1  0
 24 66  1  0
 24 67  1  0
 24 68  1  0
 26 69  1  0
 26 70  1  0
 27 71  1  0
 28 72  1  0
 28 73  1  0
 29 74  1  0
 29 75  1  0
 30 76  1  0
 30 77  1  0
 31 78  1  0
 31 79  1  0
 39 80  1  0
 40 81  1  0
 41 82  1  0
 42 83  1  0
 43 84  1  0
 44 85  1  0
M  END
> <Name>
14c Shen et al., 2018

> <Clean Energy>
25.9288196563721

> <Chemical Formula>
C32H39N3O10S

> <Reference>
Shen et al., 2018

> <Forcefield>
MMFF

> <ForcefieldBase>
MMFF

> <ForcefieldFFML>
<?xml version="1.0" encoding="UTF-8"?>
<!DOCTYPE ffml SYSTEM "Ffml.dtd">
<ffml version="1.0">
<forcefield name="14c Shen et al., 2018-MMFF" derivedFrom="MMFF" base="MMFF">
<atomTypes>
<atomType
 name="C100"
 element="C"
 mass="12.011"
 annotation=""/>
<atomType
 name="O101"
 element="O"
 mass="16"
 annotation=""/>
<atomType
 name="S102"
 element="S"
 mass="32.066"
 annotation=""/>
<atomType
 name="N103"
 element="N"
 mass="14.007"
 annotation=""/>
<atomType
 name="H104"
 element="H"
 mass="1.008"
 annotation=""/>
</atomTypes>
<parameters>
</parameters>
</forcefield>
</ffml>

$$$$
14d Shen et al., 2018
  SciTegic07212313593D

 82 85  0  0  0  0            999 V2000
   14.3889  -12.9360    2.7946 C   0  0  1  0  0  0
   14.9447  -11.5465    3.3532 C   0  0  1  0  0  0
   15.1799  -10.5885    2.1609 C   0  0  2  0  0  0
   16.2374  -11.2582    1.2097 C   0  0  1  0  0  0
   15.7636  -12.5322    0.7308 O   0  0
   15.5299  -13.4530    1.8380 C   0  0  2  0  0  0
   15.2036  -14.8528    1.2529 C   0  0
   14.1841  -10.8373    4.4178 O   0  0
   16.6715  -10.1477   -0.1978 S   0  0
   14.2271  -13.9389    3.8609 O   0  0
   15.6870   -9.3553    2.7186 N   0  0
   15.0684  -15.8176    2.3140 O   0  0
   18.1306  -10.7064   -1.1612 C   0  0
   12.9880  -13.9866    4.6047 C   0  0
   12.8942  -14.7996    5.5299 O   0  0
   11.7462  -13.2158    4.2266 C   0  0
   15.1283  -17.1173    1.7963 C   0  0
   12.9549  -10.1921    4.2384 C   0  0
   12.3946   -9.4364    5.4226 C   0  0
   12.3476  -10.1933    3.1652 O   0  0
   15.6938   -8.1915    2.0659 C   0  0
   16.1790   -6.9644    2.7730 C   0  0
   15.2970   -8.1081    0.8980 O   0  0
   15.0077  -18.3011    2.7159 C   0  0
   15.3090  -17.2963    0.5864 O   0  0
   18.6499   -9.5043   -2.0404 C   0  0
   19.9488   -9.8686   -2.8390 C   0  0
   20.4472   -8.6890   -3.6294 N   0  0
   21.5987   -9.1015   -4.4878 C   0  0
   22.1319   -7.9254   -5.3912 C   0  0
   23.1850   -8.2809   -6.4138 N   0  0
   23.8616   -7.2218   -7.0686 C   0  0
   24.8614   -7.5129   -8.1033 C   0  0
   25.1547   -8.8867   -8.4505 C   0  0
   24.5362   -9.8889   -7.8317 C   0  0
   23.5292   -9.6383   -6.7913 C   0  0
   26.1444   -9.1612   -9.4809 C   0  0
   26.4318  -10.4158   -9.8212 C   0  0
   25.7533  -11.5229   -9.1474 C   0  0
   24.8493  -11.2713   -8.2022 C   0  0
   25.4926   -6.5198   -8.7352 C   0  0
   26.5013   -6.7961   -9.7870 C   0  0
   26.8064   -8.0459  -10.1396 C   0  0
   22.9866  -10.6251   -6.2870 O   0  0
   23.5985   -6.0477   -6.7858 O   0  0
   13.4565  -12.7925    2.2486 H   0  0
   15.9285  -11.7585    3.7718 H   0  0
   14.2468  -10.4094    1.6267 H   0  0
   17.1440  -11.4345    1.7887 H   0  0
   16.4504  -13.5314    2.4165 H   0  0
   14.2695  -14.8000    0.6935 H   0  0
   16.0095  -15.1611    0.5869 H   0  0
   16.0802   -9.3769    3.7135 H   0  0
   18.9179  -11.0285   -0.4796 H   0  0
   17.8465  -11.5369   -1.8075 H   0  0
   10.9550  -13.4248    4.9465 H   0  0
   11.4198  -13.5172    3.2312 H   0  0
   11.9659  -12.1482    4.2287 H   0  0
   11.4412   -8.9852    5.1481 H   0  0
   13.0939   -8.6547    5.7193 H   0  0
   12.2444  -10.1240    6.2549 H   0  0
   16.1179   -6.1089    2.1004 H   0  0
   17.2138   -7.1087    3.0835 H   0  0
   15.5589   -6.7810    3.6505 H   0  0
   15.0770  -19.2211    2.1356 H   0  0
   14.0464  -18.2672    3.2286 H   0  0
   15.8122  -18.2743    3.4509 H   0  0
   17.8697   -9.2256   -2.7487 H   0  0
   18.8661   -8.6596   -1.3863 H   0  0
   20.7227  -10.1794   -2.1372 H   0  0
   19.7279  -10.6878   -3.5233 H   0  0
   20.7641   -7.9198   -2.9565 H   0  0
   22.4096   -9.4423   -3.8440 H   0  0
   21.2779   -9.9194   -5.1328 H   0  0
   21.2794   -7.5074   -5.9266 H   0  0
   22.5545   -7.1675   -4.7316 H   0  0
   27.1691  -10.6171  -10.5984 H   0  0
   25.9873  -12.5524   -9.4185 H   0  0
   24.3410  -12.0962   -7.7030 H   0  0
   25.2623   -5.4872   -8.4730 H   0  0
   27.0020   -5.9632  -10.2806 H   0  0
   27.5478   -8.2305  -10.9170 H   0  0
  1  2  1  0
  2  3  1  0
  3  4  1  0
  4  5  1  0
  5  6  1  0
  6  1  1  0
  6  7  1  0
  2  8  1  0
  4  9  1  0
  1 10  1  0
  3 11  1  0
  7 12  1  0
  9 13  1  0
 10 14  1  0
 14 15  2  0
 14 16  1  0
 12 17  1  0
  8 18  1  0
 18 19  1  0
 18 20  2  0
 11 21  1  0
 21 22  1  0
 21 23  2  0
 17 24  1  0
 17 25  2  0
 13 26  1  0
 26 27  1  0
 27 28  1  0
 28 29  1  0
 29 30  1  0
 30 31  1  0
 31 32  1  0
 32 33  1  0
 33 34  1  0
 34 35  2  0
 35 36  1  0
 36 31  1  0
 34 37  1  0
 37 38  2  0
 38 39  1  0
 39 40  2  0
 40 35  1  0
 33 41  2  0
 41 42  1  0
 42 43  2  0
 43 37  1  0
 36 44  2  0
 32 45  2  0
  1 46  1  0
  2 47  1  0
  3 48  1  0
  4 49  1  0
  6 50  1  0
  7 51  1  0
  7 52  1  0
 11 53  1  0
 13 54  1  0
 13 55  1  0
 16 56  1  0
 16 57  1  0
 16 58  1  0
 19 59  1  0
 19 60  1  0
 19 61  1  0
 22 62  1  0
 22 63  1  0
 22 64  1  0
 24 65  1  0
 24 66  1  0
 24 67  1  0
 26 68  1  0
 26 69  1  0
 27 70  1  0
 27 71  1  0
 28 72  1  0
 29 73  1  0
 29 74  1  0
 30 75  1  0
 30 76  1  0
 38 77  1  0
 39 78  1  0
 40 79  1  0
 41 80  1  0
 42 81  1  0
 43 82  1  0
M  END
> <Name>
14d Shen et al., 2018

> <Clean Energy>
24.8145599365234

> <Reference>
Shen et al., 2018

> <Forcefield>
MMFF

> <ForcefieldBase>
MMFF

> <ForcefieldFFML>
<?xml version="1.0" encoding="UTF-8"?>
<!DOCTYPE ffml SYSTEM "Ffml.dtd">
<ffml version="1.0">
<forcefield name="14d Shen et al., 2018-MMFF" derivedFrom="MMFF" base="MMFF">
<atomTypes>
<atomType
 name="C100"
 element="C"
 mass="12.011"
 annotation=""/>
<atomType
 name="O101"
 element="O"
 mass="16"
 annotation=""/>
<atomType
 name="S102"
 element="S"
 mass="32.066"
 annotation=""/>
<atomType
 name="N103"
 element="N"
 mass="14.007"
 annotation=""/>
<atomType
 name="H104"
 element="H"
 mass="1.008"
 annotation=""/>
</atomTypes>
<parameters>
</parameters>
</forcefield>
</ffml>

$$$$
14e Shen et al., 2018
  SciTegic07212313593D

 85 88  0  0  0  0            999 V2000
   14.5747  -11.7968    2.6361 C   0  0  1  0  0  0
   15.1263  -10.4063    3.1946 C   0  0  1  0  0  0
   15.3556   -9.4455    2.0034 C   0  0  2  0  0  0
   16.4196  -10.1059    1.0470 C   0  0  1  0  0  0
   15.9515  -11.3854    0.5685 O   0  0
   15.7190  -12.3096    1.6790 C   0  0  2  0  0  0
   15.3963  -13.7123    1.0956 C   0  0
   14.3686   -9.6983    4.2634 O   0  0
   16.8450   -8.9805   -0.3611 S   0  0
   14.4146  -12.7998    3.7034 O   0  0
   15.8513   -8.2112    2.5704 N   0  0
   15.2601  -14.6766    2.1588 O   0  0
   18.3185   -9.4911   -1.3420 C   0  0
   13.1734  -12.8484    4.4461 C   0  0
   13.0789  -13.6603    5.3724 O   0  0
   11.9308  -12.0793    4.0656 C   0  0
   15.3155  -15.9782    1.6436 C   0  0
   13.1375   -9.0540    4.0978 C   0  0
   12.5922   -8.2973    5.2889 C   0  0
   12.5181   -9.0543    3.0317 O   0  0
   15.8709   -7.0437    1.9248 C   0  0
   16.3383   -5.8214    2.6517 C   0  0
   15.4982   -6.9511    0.7499 O   0  0
   15.1906  -17.1601    2.5655 C   0  0
   15.4945  -16.1602    0.4339 O   0  0
   18.7990   -8.2616   -2.2189 C   0  0
   20.1103   -8.5624   -3.0412 C   0  0
   20.5570   -7.3411   -3.8146 N   0  0
   21.7575   -7.6469   -4.6715 C   0  0
   22.2606   -6.3767   -5.4625 C   0  0
   23.4832   -6.7522   -6.3915 C   0  0
   24.1540   -5.6534   -7.1793 N   0  0
   23.9545   -4.2473   -6.9533 C   0  0
   24.7009   -3.2778   -7.7609 C   0  0
   25.6270   -3.7351   -8.7777 C   0  0
   25.8014   -5.0352   -8.9986 C   0  0
   25.0649   -6.0412   -8.2014 C   0  0
   26.3579   -2.7496   -9.5618 C   0  0
   27.2167   -3.1382  -10.5020 C   0  0
   27.4188   -4.5668  -10.7524 C   0  0
   26.7481   -5.4703  -10.0363 C   0  0
   24.5383   -1.9699   -7.5521 C   0  0
   25.2811   -0.9656   -8.3464 C   0  0
   26.1428   -1.3353   -9.2951 C   0  0
   25.2609   -7.2416   -8.4193 O   0  0
   23.1924   -3.8170   -6.0829 O   0  0
   13.6423  -11.6559    2.0895 H   0  0
   16.1123  -10.6157    3.6096 H   0  0
   14.4211   -9.2710    1.4701 H   0  0
   17.3279  -10.2769    1.6246 H   0  0
   16.6393  -12.3849    2.2581 H   0  0
   14.4635  -13.6622    0.5339 H   0  0
   16.2044  -14.0203    0.4321 H   0  0
   16.2266   -8.2356    3.5721 H   0  0
   19.1193   -9.7957   -0.6682 H   0  0
   18.0542  -10.3244   -1.9931 H   0  0
   11.1389  -12.2886    4.7846 H   0  0
   11.6062  -12.3819    3.0700 H   0  0
   12.1492  -11.0113    4.0671 H   0  0
   11.6353   -7.8463    5.0264 H   0  0
   13.2952   -7.5153    5.5760 H   0  0
   12.4527   -8.9843    6.1236 H   0  0
   16.2917   -4.9610    1.9842 H   0  0
   17.3660   -5.9669    2.9847 H   0  0
   15.6982   -5.6451    3.5161 H   0  0
   15.2567  -18.0814    1.9868 H   0  0
   14.2294  -17.1219    3.0780 H   0  0
   15.9951  -17.1348    3.3005 H   0  0
   18.0036   -8.0021   -2.9175 H   0  0
   18.9912   -7.4175   -1.5566 H   0  0
   20.9024   -8.8580   -2.3532 H   0  0
   19.9138   -9.3750   -3.7406 H   0  0
   20.8105   -6.5643   -3.1238 H   0  0
   22.5641   -8.0048   -4.0317 H   0  0
   21.4894   -8.4236   -5.3878 H   0  0
   21.4473   -5.9920   -6.0779 H   0  0
   22.5721   -5.6115   -4.7514 H   0  0
   24.2447   -7.2020   -5.7545 H   0  0
   23.1266   -7.4908   -7.1093 H   0  0
   27.7664   -2.3971  -11.0821 H   0  0
   28.1172   -4.8916  -11.5237 H   0  0
   26.9019   -6.5335  -10.2208 H   0  0
   23.8445   -1.6343   -6.7813 H   0  0
   25.1211    0.0950   -8.1526 H   0  0
   26.6832   -0.5816   -9.8678 H   0  0
  1  2  1  0
  2  3  1  0
  3  4  1  0
  4  5  1  0
  5  6  1  0
  6  1  1  0
  6  7  1  0
  2  8  1  0
  4  9  1  0
  1 10  1  0
  3 11  1  0
  7 12  1  0
  9 13  1  0
 10 14  1  0
 14 15  2  0
 14 16  1  0
 12 17  1  0
  8 18  1  0
 18 19  1  0
 18 20  2  0
 11 21  1  0
 21 22  1  0
 21 23  2  0
 17 24  1  0
 17 25  2  0
 13 26  1  0
 26 27  1  0
 27 28  1  0
 28 29  1  0
 29 30  1  0
 30 31  1  0
 31 32  1  0
 32 33  1  0
 33 34  1  0
 34 35  1  0
 35 36  2  0
 36 37  1  0
 37 32  1  0
 35 38  1  0
 38 39  2  0
 39 40  1  0
 40 41  2  0
 41 36  1  0
 34 42  2  0
 42 43  1  0
 43 44  2  0
 44 38  1  0
 37 45  2  0
 33 46  2  0
  1 47  1  0
  2 48  1  0
  3 49  1  0
  4 50  1  0
  6 51  1  0
  7 52  1  0
  7 53  1  0
 11 54  1  0
 13 55  1  0
 13 56  1  0
 16 57  1  0
 16 58  1  0
 16 59  1  0
 19 60  1  0
 19 61  1  0
 19 62  1  0
 22 63  1  0
 22 64  1  0
 22 65  1  0
 24 66  1  0
 24 67  1  0
 24 68  1  0
 26 69  1  0
 26 70  1  0
 27 71  1  0
 27 72  1  0
 28 73  1  0
 29 74  1  0
 29 75  1  0
 30 76  1  0
 30 77  1  0
 31 78  1  0
 31 79  1  0
 39 80  1  0
 40 81  1  0
 41 82  1  0
 42 83  1  0
 43 84  1  0
 44 85  1  0
M  END
> <Name>
14e Shen et al., 2018

> <Clean Energy>
26.0741500854492

> <Reference>
Shen et al., 2018

> <Forcefield>
MMFF

> <ForcefieldBase>
MMFF

> <ForcefieldFFML>
<?xml version="1.0" encoding="UTF-8"?>
<!DOCTYPE ffml SYSTEM "Ffml.dtd">
<ffml version="1.0">
<forcefield name="14e Shen et al., 2018-MMFF" derivedFrom="MMFF" base="MMFF">
<atomTypes>
<atomType
 name="C100"
 element="C"
 mass="12.011"
 annotation=""/>
<atomType
 name="O101"
 element="O"
 mass="16"
 annotation=""/>
<atomType
 name="S102"
 element="S"
 mass="32.066"
 annotation=""/>
<atomType
 name="N103"
 element="N"
 mass="14.007"
 annotation=""/>
<atomType
 name="H104"
 element="H"
 mass="1.008"
 annotation=""/>
</atomTypes>
<parameters>
</parameters>
</forcefield>
</ffml>

$$$$
14f Shen et al., 2018
  SciTegic07212313593D

 88 91  0  0  0  0            999 V2000
   15.0890  -12.6045    2.0496 C   0  0  1  0  0  0
   15.6417  -11.2136    2.6065 C   0  0  1  0  0  0
   15.8750  -10.2542    1.4125 C   0  0  2  0  0  0
   16.9420  -10.9195    0.4590 C   0  0  1  0  0  0
   16.4706  -12.1985   -0.0170 O   0  0
   16.2336  -13.1199    1.0947 C   0  0  2  0  0  0
   15.9101  -14.5224    0.5119 C   0  0
   14.8832  -10.5038    3.6743 O   0  0
   17.3845   -9.8037   -0.9568 S   0  0
   14.9274  -13.6071    3.1179 O   0  0
   16.3703   -9.0205    1.9782 N   0  0
   15.7712  -15.4863    1.5748 O   0  0
   18.8585  -10.3448   -1.9291 C   0  0
   13.6867  -13.6553    3.8609 C   0  0
   13.5923  -14.4674    4.7871 O   0  0
   12.4445  -12.8858    3.4808 C   0  0
   15.8291  -16.7875    1.0590 C   0  0
   13.6517   -9.8606    3.5090 C   0  0
   13.1066   -9.1031    4.7001 C   0  0
   13.0310   -9.8633    2.4437 O   0  0
   16.3929   -7.8563    1.3280 C   0  0
   16.8578   -6.6310    2.0515 C   0  0
   16.0243   -7.7693    0.1515 O   0  0
   15.7030  -17.9701    1.9798 C   0  0
   16.0117  -16.9686   -0.1503 O   0  0
   19.3706   -9.1417   -2.8315 C   0  0
   20.6835   -9.4951   -3.6381 C   0  0
   21.1783   -8.3123   -4.4488 N   0  0
   22.3713   -8.6971   -5.2916 C   0  0
   22.9153   -7.4949   -6.1640 C   0  0
   24.0838   -7.9853   -7.1060 C   0  0
   24.6586   -6.8252   -8.0163 C   0  0
   25.7019   -7.1986   -9.0522 N   0  0
   26.3807   -6.1462   -9.7177 C   0  0
   27.3728   -6.4443  -10.7593 C   0  0
   27.6589   -7.8192  -11.1057 C   0  0
   27.0393   -8.8182  -10.4810 C   0  0
   26.0359   -8.5584   -9.4273 C   0  0
   28.6416   -8.0979  -12.1445 C   0  0
   28.9231   -9.3535  -12.4856 C   0  0
   28.2448  -10.4575  -11.8060 C   0  0
   27.3476  -10.2028  -10.8539 C   0  0
   28.0044   -5.4543  -11.3963 C   0  0
   29.0055   -5.7342  -12.4547 C   0  0
   29.3041   -6.9851  -12.8084 C   0  0
   25.4906   -9.5368   -8.9099 O   0  0
   26.1272   -4.9700   -9.4362 O   0  0
   14.1571  -12.4635    1.5020 H   0  0
   16.6267  -11.4239    3.0231 H   0  0
   14.9420  -10.0796    0.8766 H   0  0
   17.8467  -11.0936    1.0414 H   0  0
   17.1529  -13.1963    1.6754 H   0  0
   14.9781  -14.4714   -0.0510 H   0  0
   16.7187  -14.8316   -0.1504 H   0  0
   16.7421   -9.0423    2.9813 H   0  0
   19.6517  -10.6495   -1.2463 H   0  0
   18.5842  -11.1854   -2.5664 H   0  0
   11.6526  -13.0949    4.2001 H   0  0
   12.1195  -13.1883    2.4853 H   0  0
   12.6632  -11.8180    3.4823 H   0  0
   12.1491   -8.6530    4.4380 H   0  0
   13.8092   -8.3203    4.9861 H   0  0
   12.9682   -9.7895    5.5355 H   0  0
   16.8141   -5.7735    1.3801 H   0  0
   17.8840   -6.7753    2.3894 H   0  0
   16.2142   -6.4507    2.9125 H   0  0
   15.7714  -18.8909    1.4007 H   0  0
   14.7404  -17.9330    2.4899 H   0  0
   16.5056  -17.9445    2.7169 H   0  0
   18.5857   -8.8807   -3.5415 H   0  0
   19.5774   -8.2871   -2.1874 H   0  0
   21.4615   -9.7912   -2.9345 H   0  0
   20.4705  -10.3227   -4.3147 H   0  0
   21.4601   -7.5242   -3.7822 H   0  0
   23.1691   -9.0379   -4.6316 H   0  0
   22.0798   -9.5082   -5.9589 H   0  0
   22.1041   -7.0981   -6.7744 H   0  0
   23.2901   -6.7127   -5.5039 H   0  0
   24.8913   -8.3754   -6.4864 H   0  0
   23.7036   -8.7783   -7.7499 H   0  0
   23.8172   -6.3794   -8.5467 H   0  0
   25.1063   -6.0832   -7.3551 H   0  0
   29.6550   -9.5580  -13.2669 H   0  0
   28.4732  -11.4880  -12.0782 H   0  0
   26.8412  -11.0264  -10.3506 H   0  0
   27.7798   -4.4206  -11.1331 H   0  0
   29.5057   -4.9032  -12.9520 H   0  0
   30.0400   -7.1729  -13.5903 H   0  0
  1  2  1  0
  2  3  1  0
  3  4  1  0
  4  5  1  0
  5  6  1  0
  6  1  1  0
  6  7  1  0
  2  8  1  0
  4  9  1  0
  1 10  1  0
  3 11  1  0
  7 12  1  0
  9 13  1  0
 10 14  1  0
 14 15  2  0
 14 16  1  0
 12 17  1  0
  8 18  1  0
 18 19  1  0
 18 20  2  0
 11 21  1  0
 21 22  1  0
 21 23  2  0
 17 24  1  0
 17 25  2  0
 13 26  1  0
 26 27  1  0
 27 28  1  0
 28 29  1  0
 29 30  1  0
 30 31  1  0
 31 32  1  0
 32 33  1  0
 33 34  1  0
 34 35  1  0
 35 36  1  0
 36 37  2  0
 37 38  1  0
 38 33  1  0
 36 39  1  0
 39 40  2  0
 40 41  1  0
 41 42  2  0
 42 37  1  0
 35 43  2  0
 43 44  1  0
 44 45  2  0
 45 39  1  0
 38 46  2  0
 34 47  2  0
  1 48  1  0
  2 49  1  0
  3 50  1  0
  4 51  1  0
  6 52  1  0
  7 53  1  0
  7 54  1  0
 11 55  1  0
 13 56  1  0
 13 57  1  0
 16 58  1  0
 16 59  1  0
 16 60  1  0
 19 61  1  0
 19 62  1  0
 19 63  1  0
 22 64  1  0
 22 65  1  0
 22 66  1  0
 24 67  1  0
 24 68  1  0
 24 69  1  0
 26 70  1  0
 26 71  1  0
 27 72  1  0
 27 73  1  0
 28 74  1  0
 29 75  1  0
 29 76  1  0
 30 77  1  0
 30 78  1  0
 31 79  1  0
 31 80  1  0
 32 81  1  0
 32 82  1  0
 40 83  1  0
 41 84  1  0
 42 85  1  0
 43 86  1  0
 44 87  1  0
 45 88  1  0
M  END
> <Name>
14f Shen et al., 2018

> <Clean Energy>
26.7112102508545

> <Reference>
Shen et al., 2018

> <Forcefield>
MMFF

> <ForcefieldBase>
MMFF

> <ForcefieldFFML>
<?xml version="1.0" encoding="UTF-8"?>
<!DOCTYPE ffml SYSTEM "Ffml.dtd">
<ffml version="1.0">
<forcefield name="14f Shen et al., 2018-MMFF" derivedFrom="MMFF" base="MMFF">
<atomTypes>
<atomType
 name="C100"
 element="C"
 mass="12.011"
 annotation=""/>
<atomType
 name="O101"
 element="O"
 mass="16"
 annotation=""/>
<atomType
 name="S102"
 element="S"
 mass="32.066"
 annotation=""/>
<atomType
 name="N103"
 element="N"
 mass="14.007"
 annotation=""/>
<atomType
 name="H104"
 element="H"
 mass="1.008"
 annotation=""/>
</atomTypes>
<parameters>
</parameters>
</forcefield>
</ffml>

$$$$
14g Shen et al., 2018
  SciTegic07212313593D

 88 91  0  0  0  0            999 V2000
   15.0887  -12.6045    2.0510 C   0  0  1  0  0  0
   15.6418  -11.2144    2.6088 C   0  0  1  0  0  0
   15.8753  -10.2542    1.4155 C   0  0  2  0  0  0
   16.9411  -10.9195    0.4611 C   0  0  1  0  0  0
   16.4688  -12.1977   -0.0156 O   0  0
   16.2325  -13.1195    1.0952 C   0  0  2  0  0  0
   15.9082  -14.5215    0.5118 C   0  0
   14.8826  -10.5064    3.6769 O   0  0
   17.3828   -9.8042   -0.9546 S   0  0
   14.9273  -13.6076    3.1186 O   0  0
   16.3721   -9.0211    1.9811 N   0  0
   15.7708  -15.4854    1.5747 O   0  0
   18.8543  -10.3494   -1.9275 C   0  0
   13.6868  -13.6563    3.8619 C   0  0
   13.5927  -14.4686    4.7878 O   0  0
   12.4443  -12.8870    3.4822 C   0  0
   15.8275  -16.7865    1.0590 C   0  0
   13.6516   -9.8624    3.5095 C   0  0
   13.1023   -9.1085    4.7007 C   0  0
   13.0345   -9.8623    2.4421 O   0  0
   16.3921   -7.8566    1.3312 C   0  0
   16.8594   -6.6312    2.0532 C   0  0
   16.0193   -7.7697    0.1560 O   0  0
   15.7032  -17.9689    1.9803 C   0  0
   16.0079  -16.9679   -0.1506 O   0  0
   19.3627   -9.1516   -2.8375 C   0  0
   20.6750   -9.5081   -3.6428 C   0  0
   21.1860   -8.2760   -4.5017 C   0  0
   22.4603   -8.6634   -5.3520 C   0  0
   22.9695   -7.5152   -6.1922 N   0  0
   24.0828   -7.9854   -7.0952 C   0  0
   24.6501   -6.8273   -8.0121 C   0  0
   25.6937   -7.2003   -9.0473 N   0  0
   26.3723   -6.1476   -9.7121 C   0  0
   27.3652   -6.4450  -10.7527 C   0  0
   27.6522   -7.8197  -11.0991 C   0  0
   27.0326   -8.8191  -10.4751 C   0  0
   26.0283   -8.5599   -9.4222 C   0  0
   28.6358   -8.0976  -12.1372 C   0  0
   28.9183   -9.3529  -12.4782 C   0  0
   28.2400  -10.4575  -11.7994 C   0  0
   27.3419  -10.2035  -10.8480 C   0  0
   27.9968   -5.4545  -11.3889 C   0  0
   28.9988   -5.7336  -12.4465 C   0  0
   29.2982   -6.9843  -12.8002 C   0  0
   25.4828   -9.5385   -8.9051 O   0  0
   26.1181   -4.9716   -9.4305 O   0  0
   14.1566  -12.4629    1.5039 H   0  0
   16.6267  -11.4252    3.0256 H   0  0
   14.9422  -10.0786    0.8802 H   0  0
   17.8462  -11.0944    1.0426 H   0  0
   17.1521  -13.1965    1.6753 H   0  0
   14.9755  -14.4702   -0.0499 H   0  0
   16.7159  -14.8305   -0.1516 H   0  0
   16.7471   -9.0434    2.9830 H   0  0
   19.6495  -10.6497   -1.2452 H   0  0
   18.5790  -11.1937   -2.5595 H   0  0
   11.6527  -13.0964    4.2016 H   0  0
   12.1191  -13.1893    2.4867 H   0  0
   12.6628  -11.8191    3.4839 H   0  0
   12.1458   -8.6576    4.4364 H   0  0
   13.8040   -8.3266    4.9915 H   0  0
   12.9609   -9.7973    5.5336 H   0  0
   16.8130   -5.7737    1.3820 H   0  0
   17.8869   -6.7754    2.3872 H   0  0
   16.2189   -6.4512    2.9166 H   0  0
   15.7705  -18.8899    1.4014 H   0  0
   14.7417  -17.9317    2.4924 H   0  0
   16.5073  -17.9432    2.7158 H   0  0
   18.5767   -8.8964   -3.5482 H   0  0
   19.5687   -8.2925   -2.1989 H   0  0
   21.4552   -9.7956   -2.9380 H   0  0
   20.4637  -10.3422   -4.3119 H   0  0
   20.3910   -7.9589   -5.1766 H   0  0
   21.4420   -7.4563   -3.8305 H   0  0
   23.2523   -8.9757   -4.6713 H   0  0
   22.2009   -9.4909   -6.0124 H   0  0
   23.3377   -6.7430   -5.5496 H   0  0
   24.8940   -8.3712   -6.4778 H   0  0
   23.7016   -8.7818   -7.7343 H   0  0
   23.8055   -6.3888   -8.5436 H   0  0
   25.0947   -6.0795   -7.3554 H   0  0
   29.6509   -9.5569  -13.2591 H   0  0
   28.4691  -11.4878  -12.0718 H   0  0
   26.8355  -11.0275  -10.3453 H   0  0
   27.7714   -4.4211  -11.1257 H   0  0
   29.4990   -4.9022  -12.9431 H   0  0
   30.0349   -7.1715  -13.5815 H   0  0
  1  2  1  0
  2  3  1  0
  3  4  1  0
  4  5  1  0
  5  6  1  0
  6  1  1  0
  6  7  1  0
  2  8  1  0
  4  9  1  0
  1 10  1  0
  3 11  1  0
  7 12  1  0
  9 13  1  0
 10 14  1  0
 14 15  2  0
 14 16  1  0
 12 17  1  0
  8 18  1  0
 18 19  1  0
 18 20  2  0
 11 21  1  0
 21 22  1  0
 21 23  2  0
 17 24  1  0
 17 25  2  0
 13 26  1  0
 26 27  1  0
 27 28  1  0
 28 29  1  0
 29 30  1  0
 30 31  1  0
 31 32  1  0
 32 33  1  0
 33 34  1  0
 34 35  1  0
 35 36  1  0
 36 37  2  0
 37 38  1  0
 38 33  1  0
 36 39  1  0
 39 40  2  0
 40 41  1  0
 41 42  2  0
 42 37  1  0
 35 43  2  0
 43 44  1  0
 44 45  2  0
 45 39  1  0
 38 46  2  0
 34 47  2  0
  1 48  1  0
  2 49  1  0
  3 50  1  0
  4 51  1  0
  6 52  1  0
  7 53  1  0
  7 54  1  0
 11 55  1  0
 13 56  1  0
 13 57  1  0
 16 58  1  0
 16 59  1  0
 16 60  1  0
 19 61  1  0
 19 62  1  0
 19 63  1  0
 22 64  1  0
 22 65  1  0
 22 66  1  0
 24 67  1  0
 24 68  1  0
 24 69  1  0
 26 70  1  0
 26 71  1  0
 27 72  1  0
 27 73  1  0
 28 74  1  0
 28 75  1  0
 29 76  1  0
 29 77  1  0
 30 78  1  0
 31 79  1  0
 31 80  1  0
 32 81  1  0
 32 82  1  0
 40 83  1  0
 41 84  1  0
 42 85  1  0
 43 86  1  0
 44 87  1  0
 45 88  1  0
M  END
> <Name>
14g Shen et al., 2018

> <Clean Energy>
26.5100517272949

> <Reference>
Shen et al., 2018

> <Forcefield>
MMFF

> <ForcefieldBase>
MMFF

> <ForcefieldFFML>
<?xml version="1.0" encoding="UTF-8"?>
<!DOCTYPE ffml SYSTEM "Ffml.dtd">
<ffml version="1.0">
<forcefield name="14g Shen et al., 2018-MMFF" derivedFrom="MMFF" base="MMFF">
<atomTypes>
<atomType
 name="C100"
 element="C"
 mass="12.011"
 annotation=""/>
<atomType
 name="O101"
 element="O"
 mass="16"
 annotation=""/>
<atomType
 name="S102"
 element="S"
 mass="32.066"
 annotation=""/>
<atomType
 name="N103"
 element="N"
 mass="14.007"
 annotation=""/>
<atomType
 name="H104"
 element="H"
 mass="1.008"
 annotation=""/>
</atomTypes>
<parameters>
</parameters>
</forcefield>
</ffml>

$$$$
14h Shen et al., 2018
  SciTegic07212313593D

 91 94  0  0  0  0            999 V2000
   14.6500  -11.9201    2.5490 C   0  0  1  0  0  0
   15.2031  -10.5301    3.1064 C   0  0  1  0  0  0
   15.4368   -9.5697    1.9130 C   0  0  2  0  0  0
   16.5051  -10.2323    0.9575 C   0  0  1  0  0  0
   16.0337  -11.5125    0.4808 O   0  0
   15.7954  -12.4353    1.5937 C   0  0  2  0  0  0
   15.4710  -13.8382    1.0115 C   0  0
   14.4449   -9.8208    4.1751 O   0  0
   16.9446   -9.1070   -0.4563 S   0  0
   14.4872  -12.9226    3.6177 O   0  0
   15.9317   -8.3368    2.4802 N   0  0
   15.3313  -14.8014    2.0756 O   0  0
   18.4268   -9.6202   -1.4371 C   0  0
   13.2456  -12.9698    4.3604 C   0  0
   13.1501  -13.7811    5.2871 O   0  0
   12.0040  -12.1997    3.9793 C   0  0
   15.3867  -16.1034    1.5613 C   0  0
   13.2138   -9.1761    4.0112 C   0  0
   12.6697   -8.4201    5.2038 C   0  0
   12.5928   -9.1764    2.9461 O   0  0
   15.9497   -7.1711    1.8327 C   0  0
   16.4150   -5.9466    2.5571 C   0  0
   15.5767   -7.0822    0.6576 O   0  0
   15.2595  -17.2849    2.4836 C   0  0
   15.5682  -16.2863    0.3521 O   0  0
   18.9135   -8.4006   -2.3375 C   0  0
   20.2344   -8.7123   -3.1567 C   0  0
   20.7068   -7.4508   -4.0032 C   0  0
   21.9918   -7.7731   -4.8752 C   0  0
   22.4512   -6.5788   -5.6897 N   0  0
   23.6065   -6.9487   -6.5981 C   0  0
   24.1448   -5.7062   -7.4172 C   0  0
   25.3301   -6.1213   -8.3892 C   0  0
   26.0232   -5.0317   -9.1847 N   0  0
   25.8386   -3.6215   -8.9658 C   0  0
   26.5962   -2.6616   -9.7729 C   0  0
   27.5149   -3.1270  -10.7918 C   0  0
   27.6866   -4.4290  -11.0045 C   0  0
   26.9356   -5.4308  -10.2078 C   0  0
   28.2590   -2.1468  -11.5719 C   0  0
   29.1136   -2.5417  -12.5130 C   0  0
   29.3085   -3.9720  -12.7595 C   0  0
   28.6291   -4.8707  -12.0448 C   0  0
   26.4396   -1.3523   -9.5690 C   0  0
   27.1909   -0.3539  -10.3618 C   0  0
   28.0503   -0.7304  -11.3096 C   0  0
   27.1237   -6.6330  -10.4237 O   0  0
   25.0789   -3.1781   -8.1004 O   0  0
   13.7185  -11.7784    2.0010 H   0  0
   16.1881  -10.7411    3.5229 H   0  0
   14.5039   -9.3946    1.3773 H   0  0
   17.4104  -10.4060    1.5392 H   0  0
   16.7143  -12.5121    2.1748 H   0  0
   14.5392  -13.7870    0.4483 H   0  0
   16.2796  -14.1485    0.3497 H   0  0
   16.3070   -8.3603    3.4819 H   0  0
   19.2279   -9.9136   -0.7587 H   0  0
   18.1652  -10.4628   -2.0772 H   0  0
   11.2117  -12.4080    4.6982 H   0  0
   11.6793  -12.5026    2.9838 H   0  0
   12.2234  -11.1320    3.9803 H   0  0
   11.7126   -7.9687    4.9427 H   0  0
   13.3731   -7.6384    5.4909 H   0  0
   12.5310   -9.1077    6.0382 H   0  0
   16.3672   -5.0877    1.8878 H   0  0
   17.4427   -6.0898    2.8908 H   0  0
   15.7743   -5.7695    3.4210 H   0  0
   15.3261  -18.2065    1.9056 H   0  0
   14.2973  -17.2457    2.9944 H   0  0
   16.0627  -17.2597    3.2201 H   0  0
   18.1199   -8.1532   -3.0425 H   0  0
   19.1031   -7.5458   -1.6883 H   0  0
   21.0262   -8.9881   -2.4602 H   0  0
   20.0420   -9.5427   -3.8361 H   0  0
   19.8970   -7.1484   -4.6672 H   0  0
   20.9405   -6.6348   -3.3193 H   0  0
   22.8002   -8.0745   -4.2092 H   0  0
   21.7568   -8.5915   -5.5557 H   0  0
   22.7653   -5.8021   -5.0241 H   0  0
   24.4185   -7.3458   -5.9891 H   0  0
   23.2707   -7.7125   -7.2995 H   0  0
   23.3290   -5.2922   -8.0099 H   0  0
   24.5068   -4.9514   -6.7191 H   0  0
   26.0909   -6.6094   -7.7800 H   0  0
   24.9245   -6.8355   -9.1059 H   0  0
   29.6652   -1.8048  -13.0966 H   0  0
   30.0085   -4.3023  -13.5270 H   0  0
   28.7726   -5.9349  -12.2320 H   0  0
   25.7437   -1.0109   -8.8026 H   0  0
   27.0393    0.7079  -10.1678 H   0  0
   28.5939    0.0190  -11.8850 H   0  0
  1  2  1  0
  2  3  1  0
  3  4  1  0
  4  5  1  0
  5  6  1  0
  6  1  1  0
  6  7  1  0
  2  8  1  0
  4  9  1  0
  1 10  1  0
  3 11  1  0
  7 12  1  0
  9 13  1  0
 10 14  1  0
 14 15  2  0
 14 16  1  0
 12 17  1  0
  8 18  1  0
 18 19  1  0
 18 20  2  0
 11 21  1  0
 21 22  1  0
 21 23  2  0
 17 24  1  0
 17 25  2  0
 13 26  1  0
 26 27  1  0
 27 28  1  0
 28 29  1  0
 29 30  1  0
 30 31  1  0
 31 32  1  0
 32 33  1  0
 33 34  1  0
 34 35  1  0
 35 36  1  0
 36 37  1  0
 37 38  2  0
 38 39  1  0
 39 34  1  0
 37 40  1  0
 40 41  2  0
 41 42  1  0
 42 43  2  0
 43 38  1  0
 36 44  2  0
 44 45  1  0
 45 46  2  0
 46 40  1  0
 39 47  2  0
 35 48  2  0
  1 49  1  0
  2 50  1  0
  3 51  1  0
  4 52  1  0
  6 53  1  0
  7 54  1  0
  7 55  1  0
 11 56  1  0
 13 57  1  0
 13 58  1  0
 16 59  1  0
 16 60  1  0
 16 61  1  0
 19 62  1  0
 19 63  1  0
 19 64  1  0
 22 65  1  0
 22 66  1  0
 22 67  1  0
 24 68  1  0
 24 69  1  0
 24 70  1  0
 26 71  1  0
 26 72  1  0
 27 73  1  0
 27 74  1  0
 28 75  1  0
 28 76  1  0
 29 77  1  0
 29 78  1  0
 30 79  1  0
 31 80  1  0
 31 81  1  0
 32 82  1  0
 32 83  1  0
 33 84  1  0
 33 85  1  0
 41 86  1  0
 42 87  1  0
 43 88  1  0
 44 89  1  0
 45 90  1  0
 46 91  1  0
M  END
> <Name>
14h Shen et al., 2018

> <Clean Energy>
27.5024795532227

> <Reference>
Shen et al., 2018

> <Forcefield>
MMFF

> <ForcefieldBase>
MMFF

> <ForcefieldFFML>
<?xml version="1.0" encoding="UTF-8"?>
<!DOCTYPE ffml SYSTEM "Ffml.dtd">
<ffml version="1.0">
<forcefield name="14h Shen et al., 2018-MMFF" derivedFrom="MMFF" base="MMFF">
<atomTypes>
<atomType
 name="C100"
 element="C"
 mass="12.011"
 annotation=""/>
<atomType
 name="O101"
 element="O"
 mass="16"
 annotation=""/>
<atomType
 name="S102"
 element="S"
 mass="32.066"
 annotation=""/>
<atomType
 name="N103"
 element="N"
 mass="14.007"
 annotation=""/>
<atomType
 name="H104"
 element="H"
 mass="1.008"
 annotation=""/>
</atomTypes>
<parameters>
</parameters>
</forcefield>
</ffml>

$$$$
14i Shen et al., 2018
  SciTegic07212313593D

 94 97  0  0  0  0            999 V2000
   15.1640  -12.6855    1.9659 C   0  0  1  0  0  0
   15.7167  -11.2958    2.5235 C   0  0  1  0  0  0
   15.9519  -10.3342    1.3298 C   0  0  2  0  0  0
   17.0217  -10.9973    0.3736 C   0  0  1  0  0  0
   16.5484  -12.2774   -0.1028 O   0  0
   16.3091  -13.2004    1.0104 C   0  0  2  0  0  0
   15.9840  -14.6033    0.4283 C   0  0
   14.9564  -10.5882    3.5920 O   0  0
   17.4686   -9.8743   -1.0442 S   0  0
   15.0020  -13.6889    3.0346 O   0  0
   16.4464   -9.1024    1.8982 N   0  0
   15.8443  -15.5664    1.4926 O   0  0
   18.9499  -10.4020   -2.0254 C   0  0
   13.7610  -13.7383    3.7782 C   0  0
   13.6674  -14.5503    4.7045 O   0  0
   12.5181  -12.9701    3.3982 C   0  0
   15.8989  -16.8687    0.9789 C   0  0
   13.7243   -9.9457    3.4258 C   0  0
   13.1750   -9.1926    4.6179 C   0  0
   13.1061   -9.9466    2.3591 O   0  0
   16.4650   -7.9372    1.2505 C   0  0
   16.9295   -6.7124    1.9750 C   0  0
   16.0928   -7.8492    0.0752 O   0  0
   15.7721  -18.0496    1.9019 C   0  0
   16.0795  -17.0523   -0.2304 O   0  0
   19.4517   -9.1980   -2.9445 C   0  0
   20.7730   -9.5407   -3.7577 C   0  0
   21.2767   -8.3045   -4.6309 C   0  0
   22.5641   -8.6772   -5.4863 C   0  0
   23.0697   -7.5217   -6.3374 N   0  0
   24.2176   -7.9699   -7.2276 C   0  0
   24.8014   -6.7985   -8.1256 C   0  0
   25.9384   -7.3323   -9.0968 C   0  0
   26.5513   -6.1758   -9.9965 C   0  0
   27.5888   -6.5505  -11.0432 N   0  0
   28.2661   -5.4959  -11.7103 C   0  0
   29.2527   -5.7902  -12.7593 C   0  0
   29.5449   -7.1635  -13.1049 C   0  0
   28.9211   -8.1649  -12.4870 C   0  0
   27.9231   -7.9079  -11.4215 C   0  0
   30.5188   -7.4376  -14.1548 C   0  0
   30.8041   -8.6917  -14.4975 C   0  0
   30.1276   -9.7984  -13.8204 C   0  0
   29.2353   -9.5483  -12.8620 C   0  0
   29.8841   -4.7976  -13.3931 C   0  0
   30.8802   -5.0725  -14.4578 C   0  0
   31.1803   -6.3219  -14.8154 C   0  0
   27.3793   -8.8857  -10.9012 O   0  0
   28.0140   -4.3204  -11.4245 O   0  0
   14.2322  -12.5440    1.4183 H   0  0
   16.7011  -11.5068    2.9412 H   0  0
   15.0194  -10.1584    0.7935 H   0  0
   17.9257  -11.1729    0.9567 H   0  0
   17.2279  -13.2778    1.5916 H   0  0
   15.0520  -14.5518   -0.1346 H   0  0
   16.7922  -14.9139   -0.2338 H   0  0
   16.8208   -9.1262    2.9003 H   0  0
   19.7492  -10.6933   -1.3439 H   0  0
   18.6821  -11.2500   -2.6557 H   0  0
   11.7266  -13.1798    4.1176 H   0  0
   12.1932  -13.2730    2.4028 H   0  0
   12.7359  -11.9020    3.3995 H   0  0
   12.2177   -8.7429    4.3545 H   0  0
   13.8759   -8.4100    4.9083 H   0  0
   13.0351   -9.8818    5.4507 H   0  0
   16.8823   -5.8537    1.3054 H   0  0
   17.9570   -6.8554    2.3097 H   0  0
   16.2880   -6.5350    2.8382 H   0  0
   15.8379  -18.9716    1.3243 H   0  0
   14.8104  -18.0099    2.4136 H   0  0
   16.5759  -18.0243    2.6377 H   0  0
   18.6621   -8.9517   -3.6544 H   0  0
   19.6505   -8.3358   -2.3079 H   0  0
   21.5578   -9.8163   -3.0532 H   0  0
   20.5691  -10.3805   -4.4220 H   0  0
   20.4781   -8.0013   -5.3080 H   0  0
   21.5222   -7.4776   -3.9645 H   0  0
   23.3586   -8.9788   -4.8037 H   0  0
   22.3144   -9.5094   -6.1444 H   0  0
   23.4096   -6.7358   -5.6957 H   0  0
   25.0179   -8.3540   -6.5949 H   0  0
   23.8591   -8.7638   -7.8828 H   0  0
   23.9950   -6.3726   -8.7226 H   0  0
   25.2200   -6.0285   -7.4775 H   0  0
   26.7360   -7.7696   -8.4962 H   0  0
   25.5133   -8.0957   -9.7484 H   0  0
   25.7219   -5.7003  -10.5200 H   0  0
   27.0174   -5.4561   -9.3235 H   0  0
   31.5376   -8.8931  -15.2783 H   0  0
   30.3532  -10.8276  -14.0996 H   0  0
   28.7372  -10.3747  -12.3550 H   0  0
   29.6629   -3.7651  -13.1224 H   0  0
   31.3753   -4.2391  -14.9563 H   0  0
   31.9166   -6.5064  -15.5977 H   0  0
  1  2  1  0
  2  3  1  0
  3  4  1  0
  4  5  1  0
  5  6  1  0
  6  1  1  0
  6  7  1  0
  2  8  1  0
  4  9  1  0
  1 10  1  0
  3 11  1  0
  7 12  1  0
  9 13  1  0
 10 14  1  0
 14 15  2  0
 14 16  1  0
 12 17  1  0
  8 18  1  0
 18 19  1  0
 18 20  2  0
 11 21  1  0
 21 22  1  0
 21 23  2  0
 17 24  1  0
 17 25  2  0
 13 26  1  0
 26 27  1  0
 27 28  1  0
 28 29  1  0
 29 30  1  0
 30 31  1  0
 31 32  1  0
 32 33  1  0
 33 34  1  0
 35 34  1  0
 35 36  1  0
 36 37  1  0
 37 38  1  0
 38 39  2  0
 39 40  1  0
 40 35  1  0
 38 41  1  0
 41 42  2  0
 42 43  1  0
 43 44  2  0
 44 39  1  0
 37 45  2  0
 45 46  1  0
 46 47  2  0
 47 41  1  0
 40 48  2  0
 36 49  2  0
  1 50  1  0
  2 51  1  0
  3 52  1  0
  4 53  1  0
  6 54  1  0
  7 55  1  0
  7 56  1  0
 11 57  1  0
 13 58  1  0
 13 59  1  0
 16 60  1  0
 16 61  1  0
 16 62  1  0
 19 63  1  0
 19 64  1  0
 19 65  1  0
 22 66  1  0
 22 67  1  0
 22 68  1  0
 24 69  1  0
 24 70  1  0
 24 71  1  0
 26 72  1  0
 26 73  1  0
 27 74  1  0
 27 75  1  0
 28 76  1  0
 28 77  1  0
 29 78  1  0
 29 79  1  0
 30 80  1  0
 31 81  1  0
 31 82  1  0
 32 83  1  0
 32 84  1  0
 33 85  1  0
 33 86  1  0
 34 87  1  0
 34 88  1  0
 42 89  1  0
 43 90  1  0
 44 91  1  0
 45 92  1  0
 46 93  1  0
 47 94  1  0
M  END
> <Name>
14i Shen et al., 2018

> <Clean Energy>
28.2063426971436

> <Reference>
Shen et al., 2018

> <Forcefield>
MMFF

> <ForcefieldBase>
MMFF

> <ForcefieldFFML>
<?xml version="1.0" encoding="UTF-8"?>
<!DOCTYPE ffml SYSTEM "Ffml.dtd">
<ffml version="1.0">
<forcefield name="14i Shen et al., 2018-MMFF" derivedFrom="MMFF" base="MMFF">
<atomTypes>
<atomType
 name="C100"
 element="C"
 mass="12.011"
 annotation=""/>
<atomType
 name="O101"
 element="O"
 mass="16"
 annotation=""/>
<atomType
 name="S102"
 element="S"
 mass="32.066"
 annotation=""/>
<atomType
 name="N103"
 element="N"
 mass="14.007"
 annotation=""/>
<atomType
 name="H104"
 element="H"
 mass="1.008"
 annotation=""/>
</atomTypes>
<parameters>
</parameters>
</forcefield>
</ffml>

$$$$
14j Shen et al., 2018
  SciTegic07212313593D

 91 94  0  0  0  0            999 V2000
   14.6500  -11.9195    2.5499 C   0  0  1  0  0  0
   15.2034  -10.5299    3.1079 C   0  0  1  0  0  0
   15.4380   -9.5692    1.9148 C   0  0  2  0  0  0
   16.5056  -10.2320    0.9591 C   0  0  1  0  0  0
   16.0331  -11.5115    0.4817 O   0  0
   15.7949  -12.4347    1.5942 C   0  0  2  0  0  0
   15.4698  -13.8373    1.0118 C   0  0
   14.4442   -9.8212    4.1761 O   0  0
   16.9454   -9.1061   -0.4538 S   0  0
   14.4873  -12.9224    3.6183 O   0  0
   15.9344   -8.3368    2.4815 N   0  0
   15.3305  -14.8006    2.0758 O   0  0
   18.4251   -9.6216   -1.4366 C   0  0
   13.2458  -12.9703    4.3611 C   0  0
   13.1508  -13.7819    5.2877 O   0  0
   12.0038  -12.2009    3.9802 C   0  0
   15.3855  -16.1025    1.5615 C   0  0
   13.2130   -9.1773    4.0097 C   0  0
   12.6653   -8.4222    5.2012 C   0  0
   12.5944   -9.1781    2.9432 O   0  0
   15.9493   -7.1709    1.8341 C   0  0
   16.4176   -5.9463    2.5563 C   0  0
   15.5714   -7.0824    0.6605 O   0  0
   15.2591  -17.2839    2.4840 C   0  0
   15.5660  -16.2855    0.3522 O   0  0
   18.9149   -8.4019   -2.3348 C   0  0
   20.2317   -8.7180   -3.1580 C   0  0
   20.7079   -7.4570   -4.0028 C   0  0
   21.9856   -7.7863   -4.8825 C   0  0
   22.4695   -6.5394   -5.7365 C   0  0
   23.6383   -6.9041   -6.6288 N   0  0
   24.1481   -5.7141   -7.4107 C   0  0
   25.3328   -6.1263   -8.3842 C   0  0
   26.0234   -5.0358   -9.1801 N   0  0
   25.8366   -3.6259   -8.9615 C   0  0
   26.5942   -2.6653   -9.7680 C   0  0
   27.5092   -3.1297  -10.7907 C   0  0
   27.6862   -4.4318  -10.9995 C   0  0
   26.9343   -5.4338  -10.2047 C   0  0
   28.2558   -2.1491  -11.5679 C   0  0
   29.1084   -2.5435  -12.5111 C   0  0
   29.3054   -3.9736  -12.7567 C   0  0
   28.6258   -4.8727  -12.0427 C   0  0
   26.4350   -1.3559   -9.5656 C   0  0
   27.1863   -0.3571  -10.3580 C   0  0
   28.0447   -0.7329  -11.3069 C   0  0
   27.1242   -6.6360  -10.4201 O   0  0
   25.0773   -3.1835   -8.0953 O   0  0
   13.7183  -11.7773    2.0023 H   0  0
   16.1880  -10.7412    3.5250 H   0  0
   14.5052   -9.3930    1.3792 H   0  0
   17.4108  -10.4066    1.5406 H   0  0
   16.7140  -12.5120    2.1751 H   0  0
   14.5376  -13.7857    0.4492 H   0  0
   16.2779  -14.1476    0.3493 H   0  0
   16.3135   -8.3607    3.4818 H   0  0
   19.2258   -9.9188   -0.7593 H   0  0
   18.1605  -10.4622   -2.0781 H   0  0
   11.2117  -12.4096    4.6992 H   0  0
   11.6792  -12.5038    2.9847 H   0  0
   12.2226  -11.1331    3.9814 H   0  0
   11.7085   -7.9715    4.9378 H   0  0
   13.3673   -7.6402    5.4903 H   0  0
   12.5249   -9.1103    6.0348 H   0  0
   16.3665   -5.0874    1.8872 H   0  0
   17.4469   -6.0891    2.8853 H   0  0
   15.7808   -5.7692    3.4232 H   0  0
   15.3252  -18.2056    1.9060 H   0  0
   14.2974  -17.2447    2.9957 H   0  0
   16.0630  -17.2587    3.2198 H   0  0
   18.1205   -8.1487   -3.0369 H   0  0
   19.1102   -7.5497   -1.6838 H   0  0
   21.0241   -8.9991   -2.4643 H   0  0
   20.0335   -9.5458   -3.8388 H   0  0
   19.8966   -7.1468   -4.6613 H   0  0
   20.9512   -6.6449   -3.3176 H   0  0
   22.7960   -8.0934   -4.2215 H   0  0
   21.7415   -8.6025   -5.5624 H   0  0
   21.6436   -6.1923   -6.3574 H   0  0
   22.7753   -5.7422   -5.0589 H   0  0
   23.3241   -7.6606   -7.3173 H   0  0
   23.3305   -5.3015   -8.0019 H   0  0
   24.5092   -4.9592   -6.7124 H   0  0
   26.0951   -6.6134   -7.7760 H   0  0
   24.9276   -6.8409   -9.1006 H   0  0
   29.6567   -1.8060  -13.0973 H   0  0
   30.0072   -4.3034  -13.5227 H   0  0
   28.7670   -5.9367  -12.2326 H   0  0
   25.7372   -1.0150   -8.8008 H   0  0
   27.0353    0.7046  -10.1627 H   0  0
   28.5856    0.0169  -11.8842 H   0  0
  1  2  1  0
  2  3  1  0
  3  4  1  0
  4  5  1  0
  5  6  1  0
  6  1  1  0
  6  7  1  0
  2  8  1  0
  4  9  1  0
  1 10  1  0
  3 11  1  0
  7 12  1  0
  9 13  1  0
 10 14  1  0
 14 15  2  0
 14 16  1  0
 12 17  1  0
  8 18  1  0
 18 19  1  0
 18 20  2  0
 11 21  1  0
 21 22  1  0
 21 23  2  0
 17 24  1  0
 17 25  2  0
 13 26  1  0
 26 27  1  0
 27 28  1  0
 28 29  1  0
 29 30  1  0
 30 31  1  0
 31 32  1  0
 32 33  1  0
 33 34  1  0
 34 35  1  0
 35 36  1  0
 36 37  1  0
 37 38  2  0
 38 39  1  0
 39 34  1  0
 37 40  1  0
 40 41  2  0
 41 42  1  0
 42 43  2  0
 43 38  1  0
 36 44  2  0
 44 45  1  0
 45 46  2  0
 46 40  1  0
 39 47  2  0
 35 48  2  0
  1 49  1  0
  2 50  1  0
  3 51  1  0
  4 52  1  0
  6 53  1  0
  7 54  1  0
  7 55  1  0
 11 56  1  0
 13 57  1  0
 13 58  1  0
 16 59  1  0
 16 60  1  0
 16 61  1  0
 19 62  1  0
 19 63  1  0
 19 64  1  0
 22 65  1  0
 22 66  1  0
 22 67  1  0
 24 68  1  0
 24 69  1  0
 24 70  1  0
 26 71  1  0
 26 72  1  0
 27 73  1  0
 27 74  1  0
 28 75  1  0
 28 76  1  0
 29 77  1  0
 29 78  1  0
 30 79  1  0
 30 80  1  0
 31 81  1  0
 32 82  1  0
 32 83  1  0
 33 84  1  0
 33 85  1  0
 41 86  1  0
 42 87  1  0
 43 88  1  0
 44 89  1  0
 45 90  1  0
 46 91  1  0
M  END
> <Name>
14j Shen et al., 2018

> <Clean Energy>
27.9575042724609

> <Reference>
Shen et al., 2018

> <Forcefield>
MMFF

> <ForcefieldBase>
MMFF

> <ForcefieldFFML>
<?xml version="1.0" encoding="UTF-8"?>
<!DOCTYPE ffml SYSTEM "Ffml.dtd">
<ffml version="1.0">
<forcefield name="14j Shen et al., 2018-MMFF" derivedFrom="MMFF" base="MMFF">
<atomTypes>
<atomType
 name="C100"
 element="C"
 mass="12.011"
 annotation=""/>
<atomType
 name="O101"
 element="O"
 mass="16"
 annotation=""/>
<atomType
 name="S102"
 element="S"
 mass="32.066"
 annotation=""/>
<atomType
 name="N103"
 element="N"
 mass="14.007"
 annotation=""/>
<atomType
 name="H104"
 element="H"
 mass="1.008"
 annotation=""/>
</atomTypes>
<parameters>
</parameters>
</forcefield>
</ffml>

$$$$
14k Shen et al., 2018
  SciTegic07212313593D

 94 97  0  0  0  0            999 V2000
   15.1630  -12.6856    1.9674 C   0  0  1  0  0  0
   15.7159  -11.2958    2.5251 C   0  0  1  0  0  0
   15.9514  -10.3343    1.3314 C   0  0  2  0  0  0
   17.0210  -10.9976    0.3753 C   0  0  1  0  0  0
   16.5473  -12.2774   -0.1013 O   0  0
   16.3080  -13.2005    1.0118 C   0  0  2  0  0  0
   15.9827  -14.6033    0.4294 C   0  0
   14.9553  -10.5882    3.5932 O   0  0
   17.4682   -9.8747   -1.0423 S   0  0
   15.0009  -13.6890    3.0359 O   0  0
   16.4465   -9.1026    1.8996 N   0  0
   15.8431  -15.5666    1.4935 O   0  0
   18.9488  -10.4039   -2.0233 C   0  0
   13.7601  -13.7387    3.7795 C   0  0
   13.6666  -14.5509    4.7057 O   0  0
   12.5171  -12.9706    3.3997 C   0  0
   15.8981  -16.8687    0.9794 C   0  0
   13.7231   -9.9461    3.4261 C   0  0
   13.1729   -9.1926    4.6175 C   0  0
   13.1052   -9.9480    2.3592 O   0  0
   16.4646   -7.9374    1.2518 C   0  0
   16.9301   -6.7126    1.9757 C   0  0
   16.0914   -7.8495    0.0768 O   0  0
   15.7716  -18.0500    1.9021 C   0  0
   16.0788  -17.0519   -0.2299 O   0  0
   19.4517   -9.2009   -2.9428 C   0  0
   20.7713   -9.5468   -3.7569 C   0  0
   21.2757   -8.3132   -4.6329 C   0  0
   22.5593   -8.6918   -5.4913 C   0  0
   23.0875   -7.4885   -6.3889 C   0  0
   24.2580   -7.9282   -7.2532 N   0  0
   24.8062   -6.8077   -8.1169 C   0  0
   25.9431   -7.3383   -9.0898 C   0  0
   26.5485   -6.1813   -9.9939 C   0  0
   27.5863   -6.5541  -11.0411 N   0  0
   28.2626   -5.4985  -11.7073 C   0  0
   29.2496   -5.7912  -12.7564 C   0  0
   29.5428   -7.1640  -13.1032 C   0  0
   28.9198   -8.1664  -12.4859 C   0  0
   27.9215   -7.9109  -11.4205 C   0  0
   30.5171   -7.4366  -14.1530 C   0  0
   30.8034   -8.6902  -14.4967 C   0  0
   30.1276   -9.7980  -13.8204 C   0  0
   29.2351   -9.5492  -12.8620 C   0  0
   29.8802   -4.7976  -13.3895 C   0  0
   30.8767   -5.0711  -14.4543 C   0  0
   31.1778   -6.3200  -14.8128 C   0  0
   27.3784   -8.8896  -10.9011 O   0  0
   28.0096   -4.3234  -11.4206 O   0  0
   14.2312  -12.5439    1.4197 H   0  0
   16.7001  -11.5069    2.9430 H   0  0
   15.0190  -10.1581    0.7950 H   0  0
   17.9249  -11.1735    0.9584 H   0  0
   17.2268  -13.2781    1.5929 H   0  0
   15.0506  -14.5516   -0.1333 H   0  0
   16.7908  -14.9138   -0.2329 H   0  0
   16.8215   -9.1265    2.9014 H   0  0
   19.7479  -10.6957   -1.3418 H   0  0
   18.6802  -11.2519   -2.6533 H   0  0
   11.7256  -13.1806    4.1191 H   0  0
   12.1922  -13.2735    2.4042 H   0  0
   12.7347  -11.9026    3.4011 H   0  0
   12.2156   -8.7433    4.3533 H   0  0
   13.8733   -8.4095    4.9078 H   0  0
   13.0328   -9.8814    5.4506 H   0  0
   16.8824   -5.8539    1.3060 H   0  0
   17.9579   -6.8557    2.3093 H   0  0
   16.2895   -6.5350    2.8396 H   0  0
   15.8378  -18.9718    1.3242 H   0  0
   14.8099  -18.0107    2.4137 H   0  0
   16.5754  -18.0246    2.6379 H   0  0
   18.6619   -8.9532   -3.6520 H   0  0
   19.6528   -8.3390   -2.3066 H   0  0
   21.5565   -9.8223   -3.0528 H   0  0
   20.5653  -10.3875   -4.4194 H   0  0
   20.4761   -8.0084   -5.3080 H   0  0
   21.5259   -7.4863   -3.9684 H   0  0
   23.3557   -8.9918   -4.8102 H   0  0
   22.3056   -9.5265   -6.1447 H   0  0
   22.2790   -7.1424   -7.0329 H   0  0
   23.4096   -6.6741   -5.7399 H   0  0
   23.9319   -8.7229   -7.8912 H   0  0
   23.9953   -6.3886   -8.7126 H   0  0
   25.2222   -6.0331   -7.4727 H   0  0
   26.7443   -7.7705   -8.4902 H   0  0
   25.5199   -8.1053   -9.7385 H   0  0
   25.7158   -5.7118  -10.5176 H   0  0
   27.0118   -5.4571   -9.3239 H   0  0
   31.5370   -8.8905  -15.2776 H   0  0
   30.3541  -10.8268  -14.1003 H   0  0
   28.7375  -10.3763  -12.3557 H   0  0
   29.6581   -3.7656  -13.1182 H   0  0
   31.3712   -4.2369  -14.9521 H   0  0
   31.9142   -6.5033  -15.5952 H   0  0
  1  2  1  0
  2  3  1  0
  3  4  1  0
  4  5  1  0
  5  6  1  0
  6  1  1  0
  6  7  1  0
  2  8  1  0
  4  9  1  0
  1 10  1  0
  3 11  1  0
  7 12  1  0
  9 13  1  0
 10 14  1  0
 14 15  2  0
 14 16  1  0
 12 17  1  0
  8 18  1  0
 18 19  1  0
 18 20  2  0
 11 21  1  0
 21 22  1  0
 21 23  2  0
 17 24  1  0
 17 25  2  0
 13 26  1  0
 26 27  1  0
 27 28  1  0
 28 29  1  0
 29 30  1  0
 30 31  1  0
 31 32  1  0
 32 33  1  0
 33 34  1  0
 35 34  1  0
 35 36  1  0
 36 37  1  0
 37 38  1  0
 38 39  2  0
 39 40  1  0
 40 35  1  0
 38 41  1  0
 41 42  2  0
 42 43  1  0
 43 44  2  0
 44 39  1  0
 37 45  2  0
 45 46  1  0
 46 47  2  0
 47 41  1  0
 40 48  2  0
 36 49  2  0
  1 50  1  0
  2 51  1  0
  3 52  1  0
  4 53  1  0
  6 54  1  0
  7 55  1  0
  7 56  1  0
 11 57  1  0
 13 58  1  0
 13 59  1  0
 16 60  1  0
 16 61  1  0
 16 62  1  0
 19 63  1  0
 19 64  1  0
 19 65  1  0
 22 66  1  0
 22 67  1  0
 22 68  1  0
 24 69  1  0
 24 70  1  0
 24 71  1  0
 26 72  1  0
 26 73  1  0
 27 74  1  0
 27 75  1  0
 28 76  1  0
 28 77  1  0
 29 78  1  0
 29 79  1  0
 30 80  1  0
 30 81  1  0
 31 82  1  0
 32 83  1  0
 32 84  1  0
 33 85  1  0
 33 86  1  0
 34 87  1  0
 34 88  1  0
 42 89  1  0
 43 90  1  0
 44 91  1  0
 45 92  1  0
 46 93  1  0
 47 94  1  0
M  END
> <Name>
14k Shen et al., 2018

> <Clean Energy>
28.1316604614258

> <Reference>
Shen et al., 2018

> <Forcefield>
MMFF

> <ForcefieldBase>
MMFF

> <ForcefieldFFML>
<?xml version="1.0" encoding="UTF-8"?>
<!DOCTYPE ffml SYSTEM "Ffml.dtd">
<ffml version="1.0">
<forcefield name="14k Shen et al., 2018-MMFF" derivedFrom="MMFF" base="MMFF">
<atomTypes>
<atomType
 name="C100"
 element="C"
 mass="12.011"
 annotation=""/>
<atomType
 name="O101"
 element="O"
 mass="16"
 annotation=""/>
<atomType
 name="S102"
 element="S"
 mass="32.066"
 annotation=""/>
<atomType
 name="N103"
 element="N"
 mass="14.007"
 annotation=""/>
<atomType
 name="H104"
 element="H"
 mass="1.008"
 annotation=""/>
</atomTypes>
<parameters>
</parameters>
</forcefield>
</ffml>

$$$$
14l Shen et al., 2018
  SciTegic07212313593D

 97100  0  0  0  0            999 V2000
   15.3670  -11.6245    1.7893 C   0  0  1  0  0  0
   15.9208  -10.2356    2.3473 C   0  0  1  0  0  0
   16.1582   -9.2739    1.1535 C   0  0  2  0  0  0
   17.2283   -9.9374    0.1968 C   0  0  1  0  0  0
   16.7531  -11.2170   -0.2800 O   0  0
   16.5120  -12.1402    0.8338 C   0  0  2  0  0  0
   16.1854  -13.5427    0.2518 C   0  0
   15.1592   -9.5284    3.4153 O   0  0
   17.6768   -8.8107   -1.2203 S   0  0
   15.2039  -12.6279    2.8582 O   0  0
   16.6545   -8.0430    1.7211 N   0  0
   16.0451  -14.5053    1.3166 O   0  0
   19.1603   -9.3290   -2.2076 C   0  0
   13.9628  -12.6769    3.6019 C   0  0
   13.8689  -13.4889    4.5283 O   0  0
   12.7201  -11.9085    3.2218 C   0  0
   16.0988  -15.8077    0.8034 C   0  0
   13.9276   -8.8854    3.2465 C   0  0
   13.3743   -8.1342    4.4379 C   0  0
   13.3124   -8.8851    2.1780 O   0  0
   16.6671   -6.8777    1.0736 C   0  0
   17.1351   -5.6521    1.7944 C   0  0
   16.2870   -6.7909   -0.0994 O   0  0
   15.9721  -16.9883    1.7270 C   0  0
   16.2788  -15.9918   -0.4059 O   0  0
   19.6565   -8.1150   -3.1205 C   0  0
   20.9802   -8.4378   -3.9436 C   0  0
   21.4668   -7.1836   -4.8058 C   0  0
   22.7564   -7.5197   -5.6797 C   0  0
   23.2511   -6.2815   -6.5551 C   0  0
   24.4321   -6.6558   -7.4432 N   0  0
   24.9365   -5.4796   -8.2667 C   0  0
   26.1108   -5.9047   -9.2539 C   0  0
   26.6786   -4.6676  -10.0718 C   0  0
   27.8372   -5.0946  -11.0776 C   0  0
   28.5422   -4.0036  -11.8712 N   0  0
   28.3625   -2.5918  -11.6520 C   0  0
   29.1257   -1.6324  -12.4573 C   0  0
   30.0449   -2.0985  -13.4755 C   0  0
   30.2148   -3.4007  -13.6884 C   0  0
   29.4585   -4.4034  -12.8941 C   0  0
   30.7934   -1.1183  -14.2530 C   0  0
   31.6485   -1.5138  -15.1935 C   0  0
   31.8411   -2.9441  -15.4411 C   0  0
   31.1585   -3.8425  -14.7288 C   0  0
   28.9713   -0.3226  -12.2532 C   0  0
   29.7266    0.6752  -13.0435 C   0  0
   30.5870    0.2982  -13.9901 C   0  0
   29.6442   -5.6056  -13.1126 O   0  0
   27.6007   -2.1463  -10.7899 O   0  0
   14.4355  -11.4820    1.2415 H   0  0
   16.9045  -10.4477    2.7662 H   0  0
   15.2263   -9.0966    0.6168 H   0  0
   18.1320  -10.1143    0.7801 H   0  0
   17.4306  -12.2187    1.4153 H   0  0
   15.2533  -13.4904   -0.3108 H   0  0
   16.9931  -13.8543   -0.4105 H   0  0
   17.0349   -8.0673    2.7210 H   0  0
   19.9616   -9.6221   -1.5292 H   0  0
   18.8945  -10.1738   -2.8430 H   0  0
   11.9286  -12.1180    3.9413 H   0  0
   12.3952  -12.2116    2.2265 H   0  0
   12.9381  -10.8405    3.2229 H   0  0
   12.4180   -7.6840    4.1721 H   0  0
   14.0743   -7.3520    4.7319 H   0  0
   13.2317   -8.8247    5.2692 H   0  0
   17.0819   -4.7937    1.1249 H   0  0
   18.1652   -5.7936    2.1217 H   0  0
   16.4996   -5.4754    2.6622 H   0  0
   16.0372  -17.9105    1.1497 H   0  0
   15.0108  -16.9479    2.2392 H   0  0
   16.7765  -16.9630    2.4622 H   0  0
   18.8634   -7.8677   -3.8261 H   0  0
   19.8514   -7.2571   -2.4769 H   0  0
   21.7707   -8.7134   -3.2456 H   0  0
   20.7818   -9.2721   -4.6165 H   0  0
   20.6595   -6.8815   -5.4729 H   0  0
   21.7055   -6.3634   -4.1287 H   0  0
   23.5633   -7.8165   -5.0096 H   0  0
   22.5173   -8.3458   -6.3494 H   0  0
   22.4285   -5.9432   -7.1852 H   0  0
   23.5532   -5.4749   -5.8871 H   0  0
   24.1269   -7.4354   -8.1095 H   0  0
   24.1095   -5.0809   -8.8543 H   0  0
   25.3068   -4.7093   -7.5902 H   0  0
   26.9206   -6.3414   -8.6695 H   0  0
   25.7287   -6.6452   -9.9565 H   0  0
   25.8648   -4.2207  -10.6428 H   0  0
   27.0756   -3.9347   -9.3695 H   0  0
   28.5983   -5.6110  -10.4926 H   0  0
   27.4004   -5.7864  -11.7979 H   0  0
   32.2021   -0.7772  -15.7759 H   0  0
   32.5422   -3.2749  -16.2074 H   0  0
   31.2999   -4.9067  -14.9176 H   0  0
   28.2742    0.0195  -11.4883 H   0  0
   29.5770    1.7371  -12.8482 H   0  0
   31.1328    1.0471  -14.5639 H   0  0
  1  2  1  0
  2  3  1  0
  3  4  1  0
  4  5  1  0
  5  6  1  0
  6  1  1  0
  6  7  1  0
  2  8  1  0
  4  9  1  0
  1 10  1  0
  3 11  1  0
  7 12  1  0
  9 13  1  0
 10 14  1  0
 14 15  2  0
 14 16  1  0
 12 17  1  0
  8 18  1  0
 18 19  1  0
 18 20  2  0
 11 21  1  0
 21 22  1  0
 21 23  2  0
 17 24  1  0
 17 25  2  0
 13 26  1  0
 26 27  1  0
 27 28  1  0
 28 29  1  0
 29 30  1  0
 30 31  1  0
 31 32  1  0
 32 33  1  0
 33 34  1  0
 35 34  1  0
 35 36  1  0
 36 37  1  0
 37 38  1  0
 38 39  1  0
 39 40  2  0
 40 41  1  0
 41 36  1  0
 39 42  1  0
 42 43  2  0
 43 44  1  0
 44 45  2  0
 45 40  1  0
 38 46  2  0
 46 47  1  0
 47 48  2  0
 48 42  1  0
 41 49  2  0
 37 50  2  0
  1 51  1  0
  2 52  1  0
  3 53  1  0
  4 54  1  0
  6 55  1  0
  7 56  1  0
  7 57  1  0
 11 58  1  0
 13 59  1  0
 13 60  1  0
 16 61  1  0
 16 62  1  0
 16 63  1  0
 19 64  1  0
 19 65  1  0
 19 66  1  0
 22 67  1  0
 22 68  1  0
 22 69  1  0
 24 70  1  0
 24 71  1  0
 24 72  1  0
 26 73  1  0
 26 74  1  0
 27 75  1  0
 27 76  1  0
 28 77  1  0
 28 78  1  0
 29 79  1  0
 29 80  1  0
 30 81  1  0
 30 82  1  0
 31 83  1  0
 32 84  1  0
 32 85  1  0
 33 86  1  0
 33 87  1  0
 34 88  1  0
 34 89  1  0
 35 90  1  0
 35 91  1  0
 43 92  1  0
 44 93  1  0
 45 94  1  0
 46 95  1  0
 47 96  1  0
 48 97  1  0
M  END
> <Name>
14l Shen et al., 2018

> <Clean Energy>
28.8651142120361

> <Reference>
Shen et al., 2018

> <Forcefield>
MMFF

> <ForcefieldBase>
MMFF

> <ForcefieldFFML>
<?xml version="1.0" encoding="UTF-8"?>
<!DOCTYPE ffml SYSTEM "Ffml.dtd">
<ffml version="1.0">
<forcefield name="14l Shen et al., 2018-MMFF" derivedFrom="MMFF" base="MMFF">
<atomTypes>
<atomType
 name="C100"
 element="C"
 mass="12.011"
 annotation=""/>
<atomType
 name="O101"
 element="O"
 mass="16"
 annotation=""/>
<atomType
 name="S102"
 element="S"
 mass="32.066"
 annotation=""/>
<atomType
 name="N103"
 element="N"
 mass="14.007"
 annotation=""/>
<atomType
 name="H104"
 element="H"
 mass="1.008"
 annotation=""/>
</atomTypes>
<parameters>
</parameters>
</forcefield>
</ffml>

$$$$
15a Shen et al., 2018
  SciTegic07212313593D

 64 67  0  0  0  0            999 V2000
   14.9683  -11.2058    1.9046 C   0  0  1  0  0  0
   15.2100   -9.8504    2.5501 C   0  0  1  0  0  0
   15.5962   -8.8317    1.4765 C   0  0  2  0  0  0
   16.8822   -9.3556    0.7346 C   0  0  1  0  0  0
   16.6135  -10.6558    0.1530 O   0  0
   16.2687  -11.6314    1.1834 C   0  0  2  0  0  0
   16.0715  -13.0153    0.5318 C   0  0
   14.0254   -9.4168    3.2242 O   0  0
   17.3713   -8.1775   -0.5885 S   0  0
   14.6263  -12.1505    2.9237 O   0  0
   15.8395   -7.5713    2.1723 N   0  0
   15.7677  -13.9913    1.5363 O   0  0
   18.8651   -8.6533   -1.5216 C   0  0
   15.9329   -6.3716    1.5972 C   0  0
   16.1820   -5.1691    2.4607 C   0  0
   15.8246   -6.2336    0.3754 O   0  0
   19.2451   -7.4679   -2.4749 C   0  0
   20.4588   -7.7689   -3.2821 N   0  0
   20.8787   -6.5592   -4.0568 C   0  0
   22.1421   -6.8853   -4.9198 C   0  0
   22.7750   -5.7658   -5.6871 N   0  0
   22.5461   -4.3664   -5.4375 C   0  0
   23.2710   -3.3736   -6.2338 C   0  0
   24.2091   -3.8049   -7.2509 C   0  0
   24.3969   -5.0992   -7.4934 C   0  0
   23.6859   -6.1226   -6.7077 C   0  0
   24.9171   -2.8013   -8.0294 C   0  0
   25.7841   -3.1676   -8.9711 C   0  0
   26.0057   -4.5900   -9.2386 C   0  0
   25.3514   -5.5102   -8.5299 C   0  0
   23.0907   -2.0710   -6.0068 C   0  0
   23.8161   -1.0468   -6.7926 C   0  0
   24.6835   -1.3935   -7.7448 C   0  0
   23.9014   -7.3168   -6.9386 O   0  0
   21.7790   -3.9635   -4.5574 O   0  0
   14.1544  -11.1307    1.1834 H   0  0
   16.0223   -9.9366    3.2717 H   0  0
   14.7789   -8.7125    0.7653 H   0  0
   17.6975   -9.4461    1.4524 H   0  0
   17.0796  -11.6886    1.9095 H   0  0
   15.2494  -12.9643   -0.1820 H   0  0
   16.9860  -13.3037    0.0135 H   0  0
   13.2385   -9.3367    2.5336 H   0  0
   15.4143  -12.2221    3.6139 H   0  0
   15.9525   -7.6139    3.2355 H   0  0
   16.5587  -14.0435    2.2249 H   0  0
   19.6852   -8.8484   -0.8306 H   0  0
   18.6634   -9.5491   -2.1090 H   0  0
   16.2303   -4.2768    1.8367 H   0  0
   17.1259   -5.2919    2.9919 H   0  0
   15.3710   -5.0644    3.1814 H   0  0
   18.4111   -7.2787   -3.1508 H   0  0
   19.4345   -6.5791   -1.8730 H   0  0
   20.2418   -8.5660   -3.9622 H   0  0
   20.0644   -6.2504   -4.7122 H   0  0
   21.1144   -5.7515   -3.3638 H   0  0
   22.8999   -7.2865   -4.2469 H   0  0
   21.8538   -7.6504   -5.6407 H   0  0
   26.3262   -2.4123   -9.5401 H   0  0
   26.7050   -4.8963  -10.0166 H   0  0
   25.5256   -6.5692   -8.7204 H   0  0
   22.3964   -1.7549   -5.2283 H   0  0
   23.6381    0.0092   -6.5893 H   0  0
   25.2148   -0.6257   -8.3072 H   0  0
  1  2  1  0
  2  3  1  0
  3  4  1  0
  4  5  1  0
  5  6  1  0
  6  1  1  0
  6  7  1  0
  2  8  1  0
  4  9  1  0
  1 10  1  0
  3 11  1  0
  7 12  1  0
  9 13  1  0
 11 14  1  0
 14 15  1  0
 14 16  2  0
 13 17  1  0
 17 18  1  0
 18 19  1  0
 19 20  1  0
 20 21  1  0
 21 22  1  0
 22 23  1  0
 23 24  1  0
 24 25  2  0
 25 26  1  0
 26 21  1  0
 24 27  1  0
 27 28  2  0
 28 29  1  0
 29 30  2  0
 30 25  1  0
 23 31  2  0
 31 32  1  0
 32 33  2  0
 33 27  1  0
 26 34  2  0
 22 35  2  0
  1 36  1  0
  2 37  1  0
  3 38  1  0
  4 39  1  0
  6 40  1  0
  7 41  1  0
  7 42  1  0
  8 43  1  0
 10 44  1  0
 11 45  1  0
 12 46  1  0
 13 47  1  0
 13 48  1  0
 15 49  1  0
 15 50  1  0
 15 51  1  0
 17 52  1  0
 17 53  1  0
 18 54  1  0
 19 55  1  0
 19 56  1  0
 20 57  1  0
 20 58  1  0
 28 59  1  0
 29 60  1  0
 30 61  1  0
 31 62  1  0
 32 63  1  0
 33 64  1  0
M  END
> <Name>
15a Shen et al., 2018

> <Clean Energy>
3.62605905532837

> <Reference>
Shen et al., 2018

> <Forcefield>
MMFF

> <ForcefieldBase>
MMFF

> <ForcefieldFFML>
<?xml version="1.0" encoding="UTF-8"?>
<!DOCTYPE ffml SYSTEM "Ffml.dtd">
<ffml version="1.0">
<forcefield name="15a Shen et al., 2018-MMFF" derivedFrom="MMFF" base="MMFF">
<atomTypes>
<atomType
 name="C100"
 element="C"
 mass="12.011"
 annotation=""/>
<atomType
 name="O101"
 element="O"
 mass="16"
 annotation=""/>
<atomType
 name="S102"
 element="S"
 mass="32.066"
 annotation=""/>
<atomType
 name="N103"
 element="N"
 mass="14.007"
 annotation=""/>
<atomType
 name="H104"
 element="H"
 mass="1.008"
 annotation=""/>
</atomTypes>
<parameters>
</parameters>
</forcefield>
</ffml>

$$$$
15b Shen et al., 2018
  SciTegic07212313593D

 67 70  0  0  0  0            999 V2000
   15.5835  -12.2977    1.1951 C   0  0  1  0  0  0
   15.8298  -10.9390    1.8319 C   0  0  1  0  0  0
   16.2297   -9.9301    0.7525 C   0  0  2  0  0  0
   17.5184  -10.4692    0.0241 C   0  0  1  0  0  0
   17.2440  -11.7718   -0.5493 O   0  0
   16.8854  -12.7370    0.4851 C   0  0  2  0  0  0
   16.6833  -14.1238   -0.1588 C   0  0
   14.6437  -10.4934    2.4956 O   0  0
   18.0368   -9.3108   -1.3072 S   0  0
   15.2295  -13.2331    2.2188 O   0  0
   16.4749   -8.6665    1.4400 N   0  0
   16.3667  -15.0913    0.8497 O   0  0
   19.5363   -9.8308   -2.2108 C   0  0
   16.5836   -7.4737    0.8541 C   0  0
   16.8309   -6.2641    1.7082 C   0  0
   16.4899   -7.3477   -0.3701 O   0  0
   19.9609   -8.6829   -3.1924 C   0  0
   21.1726   -9.0541   -3.9763 N   0  0
   21.6208   -7.9122   -4.8348 C   0  0
   22.8104   -8.3645   -5.7354 C   0  0
   23.3269   -7.2058   -6.6605 C   0  0
   24.3769   -7.5712   -7.6747 N   0  0
   25.0565   -6.5184   -8.3293 C   0  0
   26.0539   -6.8144   -9.3612 C   0  0
   26.3446   -8.1898   -9.7035 C   0  0
   25.7218   -9.1889   -9.0838 C   0  0
   24.7166   -8.9317   -8.0447 C   0  0
   27.3320   -8.4690  -10.7336 C   0  0
   27.6167   -9.7251  -11.0704 C   0  0
   26.9349  -10.8291  -10.3944 C   0  0
   26.0319  -10.5729   -9.4495 C   0  0
   26.6878   -5.8242   -9.9942 C   0  0
   27.6952   -6.1053  -11.0450 C   0  0
   27.9973   -7.3567  -11.3942 C   0  0
   24.1689   -9.9145   -7.5375 O   0  0
   24.7957   -5.3430   -8.0495 O   0  0
   14.7746  -12.2229    0.4684 H   0  0
   16.6371  -11.0249    2.5593 H   0  0
   15.4183   -9.8119    0.0344 H   0  0
   18.3259  -10.5621    0.7503 H   0  0
   17.6912  -12.7949    1.2168 H   0  0
   15.8660  -14.0720   -0.8781 H   0  0
   17.5991  -14.4214   -0.6694 H   0  0
   13.8615  -10.4138    1.7997 H   0  0
   16.0128  -13.3046    2.9144 H   0  0
   16.5760   -8.7001    2.5047 H   0  0
   17.1530  -15.1443    1.5436 H   0  0
   20.3421  -10.0232   -1.5024 H   0  0
   19.3259  -10.7378   -2.7775 H   0  0
   16.8929   -5.3786    1.0757 H   0  0
   17.7676   -6.3879    2.2518 H   0  0
   16.0122   -6.1463    2.4181 H   0  0
   19.1401   -8.4852   -3.8819 H   0  0
   20.1750   -7.7840   -2.6143 H   0  0
   20.9434   -9.8928   -4.6000 H   0  0
   20.7932   -7.5868   -5.4650 H   0  0
   21.9413   -7.0863   -4.1998 H   0  0
   23.6291   -8.6945   -5.0959 H   0  0
   22.4811   -9.1935   -6.3618 H   0  0
   22.4688   -6.8074   -7.2018 H   0  0
   23.7437   -6.4303   -6.0178 H   0  0
   28.3544   -9.9302  -11.8462 H   0  0
   27.1657  -11.8598  -10.6636 H   0  0
   25.5223  -11.3952   -8.9472 H   0  0
   26.4605   -4.7905   -9.7337 H   0  0
   28.1977   -5.2748  -11.5408 H   0  0
   28.7388   -7.5449  -12.1706 H   0  0
  1  2  1  0
  2  3  1  0
  3  4  1  0
  4  5  1  0
  5  6  1  0
  6  1  1  0
  6  7  1  0
  2  8  1  0
  4  9  1  0
  1 10  1  0
  3 11  1  0
  7 12  1  0
  9 13  1  0
 11 14  1  0
 14 15  1  0
 14 16  2  0
 13 17  1  0
 17 18  1  0
 18 19  1  0
 19 20  1  0
 20 21  1  0
 21 22  1  0
 22 23  1  0
 23 24  1  0
 24 25  1  0
 25 26  2  0
 26 27  1  0
 27 22  1  0
 25 28  1  0
 28 29  2  0
 29 30  1  0
 30 31  2  0
 31 26  1  0
 24 32  2  0
 32 33  1  0
 33 34  2  0
 34 28  1  0
 27 35  2  0
 23 36  2  0
  1 37  1  0
  2 38  1  0
  3 39  1  0
  4 40  1  0
  6 41  1  0
  7 42  1  0
  7 43  1  0
  8 44  1  0
 10 45  1  0
 11 46  1  0
 12 47  1  0
 13 48  1  0
 13 49  1  0
 15 50  1  0
 15 51  1  0
 15 52  1  0
 17 53  1  0
 17 54  1  0
 18 55  1  0
 19 56  1  0
 19 57  1  0
 20 58  1  0
 20 59  1  0
 21 60  1  0
 21 61  1  0
 29 62  1  0
 30 63  1  0
 31 64  1  0
 32 65  1  0
 33 66  1  0
 34 67  1  0
M  END
> <Name>
15b Shen et al., 2018

> <Clean Energy>
3.6373085975647

> <Reference>
Shen et al., 2018

> <Forcefield>
MMFF

> <ForcefieldBase>
MMFF

> <ForcefieldFFML>
<?xml version="1.0" encoding="UTF-8"?>
<!DOCTYPE ffml SYSTEM "Ffml.dtd">
<ffml version="1.0">
<forcefield name="15b Shen et al., 2018-MMFF" derivedFrom="MMFF" base="MMFF">
<atomTypes>
<atomType
 name="C100"
 element="C"
 mass="12.011"
 annotation=""/>
<atomType
 name="O101"
 element="O"
 mass="16"
 annotation=""/>
<atomType
 name="S102"
 element="S"
 mass="32.066"
 annotation=""/>
<atomType
 name="N103"
 element="N"
 mass="14.007"
 annotation=""/>
<atomType
 name="H104"
 element="H"
 mass="1.008"
 annotation=""/>
</atomTypes>
<parameters>
</parameters>
</forcefield>
</ffml>

$$$$
15c Shen et al., 2018
  SciTegic07212313593D

 70 73  0  0  0  0            999 V2000
   15.7866  -10.8976    1.0327 C   0  0  1  0  0  0
   16.0308   -9.5414    1.6735 C   0  0  1  0  0  0
   16.4270   -8.5271    0.5969 C   0  0  2  0  0  0
   17.7182   -9.0569   -0.1388 C   0  0  1  0  0  0
   17.4451  -10.3603   -0.7152 O   0  0
   17.0888  -11.3311    0.3194 C   0  0  2  0  0  0
   16.8876  -12.7174   -0.3267 C   0  0
   14.8440   -9.1011    2.3404 O   0  0
   18.2268   -7.8816   -1.4689 S   0  0
   15.4357  -11.8369    2.0544 O   0  0
   16.6688   -7.2670    1.2903 N   0  0
   16.5733  -13.6873    0.6809 O   0  0
   19.7317   -8.3633   -2.3984 C   0  0
   16.7641   -6.0704    0.7110 C   0  0
   17.0101   -4.8643    1.5705 C   0  0
   16.6596   -5.9382   -0.5117 O   0  0
   20.1248   -7.1909   -3.3755 C   0  0
   21.3415   -7.5116   -4.1898 N   0  0
   21.7504   -6.3250   -5.0194 C   0  0
   22.9850   -6.6682   -5.9259 C   0  0
   23.4694   -5.4133   -6.7378 C   0  0
   24.6903   -5.7911   -7.6575 C   0  0
   25.3561   -4.6914   -8.4394 N   0  0
   25.1539   -3.2856   -8.2077 C   0  0
   25.8978   -2.3143   -9.0109 C   0  0
   26.8226   -2.7677  -10.0297 C   0  0
   27.0004   -4.0670  -10.2528 C   0  0
   26.2656   -5.0750   -9.4604 C   0  0
   27.5525   -1.7798  -10.8097 C   0  0
   28.4109   -2.1649  -11.7516 C   0  0
   28.6155   -3.5926  -12.0052 C   0  0
   27.9458   -4.4986  -11.2917 C   0  0
   25.7321   -1.0074   -8.7986 C   0  0
   26.4731   -0.0002   -9.5898 C   0  0
   27.3347   -0.3663  -10.5398 C   0  0
   26.4633   -6.2747   -9.6807 O   0  0
   24.3923   -2.8574   -7.3356 O   0  0
   14.9765  -10.8221    0.3073 H   0  0
   16.8391   -9.6280    2.3995 H   0  0
   15.6137   -8.4077   -0.1189 H   0  0
   18.5284   -9.1494    0.5846 H   0  0
   17.8957  -11.3894    1.0499 H   0  0
   16.0695  -12.6653   -1.0451 H   0  0
   17.8033  -13.0130   -0.8389 H   0  0
   14.0608   -9.0211    1.6456 H   0  0
   16.2201  -11.9089    2.7487 H   0  0
   16.7789   -7.3064    2.3539 H   0  0
   17.3604  -13.7405    1.3738 H   0  0
   20.5489   -8.5480   -1.7011 H   0  0
   19.5327   -9.2676   -2.9735 H   0  0
   17.0606   -3.9746    0.9429 H   0  0
   17.9520   -4.9848    2.1056 H   0  0
   16.1964   -4.7567    2.2877 H   0  0
   19.2905   -7.0036   -4.0514 H   0  0
   20.3237   -6.2957   -2.7863 H   0  0
   21.1243   -8.3353   -4.8372 H   0  0
   20.9146   -6.0290   -5.6534 H   0  0
   22.0138   -5.5009   -4.3564 H   0  0
   23.8016   -7.0182   -5.2944 H   0  0
   22.7029   -7.4551   -6.6254 H   0  0
   22.6508   -5.0501   -7.3592 H   0  0
   23.7728   -4.6310   -6.0420 H   0  0
   25.4506   -6.2392   -7.0179 H   0  0
   24.3372   -6.5308   -8.3761 H   0  0
   28.9585   -1.4216  -12.3309 H   0  0
   29.3149   -3.9145  -12.7768 H   0  0
   28.1000   -5.5612  -11.4795 H   0  0
   25.0373   -0.6753   -8.0273 H   0  0
   26.3119    1.0597   -9.3928 H   0  0
   27.8732    0.3896  -11.1114 H   0  0
  1  2  1  0
  2  3  1  0
  3  4  1  0
  4  5  1  0
  5  6  1  0
  6  1  1  0
  6  7  1  0
  2  8  1  0
  4  9  1  0
  1 10  1  0
  3 11  1  0
  7 12  1  0
  9 13  1  0
 11 14  1  0
 14 15  1  0
 14 16  2  0
 13 17  1  0
 17 18  1  0
 18 19  1  0
 19 20  1  0
 20 21  1  0
 21 22  1  0
 22 23  1  0
 23 24  1  0
 24 25  1  0
 25 26  1  0
 26 27  2  0
 27 28  1  0
 28 23  1  0
 26 29  1  0
 29 30  2  0
 30 31  1  0
 31 32  2  0
 32 27  1  0
 25 33  2  0
 33 34  1  0
 34 35  2  0
 35 29  1  0
 28 36  2  0
 24 37  2  0
  1 38  1  0
  2 39  1  0
  3 40  1  0
  4 41  1  0
  6 42  1  0
  7 43  1  0
  7 44  1  0
  8 45  1  0
 10 46  1  0
 11 47  1  0
 12 48  1  0
 13 49  1  0
 13 50  1  0
 15 51  1  0
 15 52  1  0
 15 53  1  0
 17 54  1  0
 17 55  1  0
 18 56  1  0
 19 57  1  0
 19 58  1  0
 20 59  1  0
 20 60  1  0
 21 61  1  0
 21 62  1  0
 22 63  1  0
 22 64  1  0
 30 65  1  0
 31 66  1  0
 32 67  1  0
 33 68  1  0
 34 69  1  0
 35 70  1  0
M  END
> <Name>
15c Shen et al., 2018

> <Clean Energy>
4.03928279876709

> <Reference>
Shen et al., 2018

> <Forcefield>
MMFF

> <ForcefieldBase>
MMFF

> <ForcefieldFFML>
<?xml version="1.0" encoding="UTF-8"?>
<!DOCTYPE ffml SYSTEM "Ffml.dtd">
<ffml version="1.0">
<forcefield name="15c Shen et al., 2018-MMFF" derivedFrom="MMFF" base="MMFF">
<atomTypes>
<atomType
 name="C100"
 element="C"
 mass="12.011"
 annotation=""/>
<atomType
 name="O101"
 element="O"
 mass="16"
 annotation=""/>
<atomType
 name="S102"
 element="S"
 mass="32.066"
 annotation=""/>
<atomType
 name="N103"
 element="N"
 mass="14.007"
 annotation=""/>
<atomType
 name="H104"
 element="H"
 mass="1.008"
 annotation=""/>
</atomTypes>
<parameters>
</parameters>
</forcefield>
</ffml>

$$$$
15d Shen et al., 2018
  SciTegic07212313593D

 67 70  0  0  0  0            999 V2000
   15.5811  -12.2988    1.1975 C   0  0  1  0  0  0
   15.8273  -10.9402    1.8344 C   0  0  1  0  0  0
   16.2263   -9.9309    0.7550 C   0  0  2  0  0  0
   17.5148  -10.4694    0.0256 C   0  0  1  0  0  0
   17.2404  -11.7720   -0.5480 O   0  0
   16.8827  -12.7375    0.4866 C   0  0  2  0  0  0
   16.6807  -14.1243   -0.1572 C   0  0
   14.6414  -10.4952    2.4990 O   0  0
   18.0322   -9.3104   -1.3056 S   0  0
   15.2281  -13.2345    2.2213 O   0  0
   16.4712   -8.6675    1.4431 N   0  0
   16.3652  -15.0920    0.8514 O   0  0
   19.5313   -9.8290   -2.2108 C   0  0
   16.5805   -7.4743    0.8581 C   0  0
   16.8274   -6.2653    1.7131 C   0  0
   16.4878   -7.3474   -0.3661 O   0  0
   19.9596   -8.6760   -3.1851 C   0  0
   21.2295   -9.0607   -4.0065 C   0  0
   21.6679   -7.9239   -4.8767 N   0  0
   22.8059   -8.3582   -5.7338 C   0  0
   23.3201   -7.2023   -6.6637 C   0  0
   24.3721   -7.5686   -7.6753 N   0  0
   25.0531   -6.5163   -8.3295 C   0  0
   26.0517   -6.8131   -9.3599 C   0  0
   26.3424   -8.1887   -9.7012 C   0  0
   25.7189   -9.1873   -9.0814 C   0  0
   24.7123   -8.9292   -8.0435 C   0  0
   27.3308   -8.4685  -10.7302 C   0  0
   27.6155   -9.7248  -11.0662 C   0  0
   26.9329  -10.8284  -10.3903 C   0  0
   26.0290  -10.5716   -9.4464 C   0  0
   26.6864   -5.8233   -9.9928 C   0  0
   27.6948   -6.1049  -11.0423 C   0  0
   27.9970   -7.3566  -11.3907 C   0  0
   24.1634   -9.9114   -7.5362 O   0  0
   24.7920   -5.3407   -8.0511 O   0  0
   14.7717  -12.2242    0.4713 H   0  0
   16.6350  -11.0260    2.5613 H   0  0
   15.4143   -9.8127    0.0375 H   0  0
   18.3227  -10.5624    0.7513 H   0  0
   17.6890  -12.7952    1.2178 H   0  0
   15.8630  -14.0727   -0.8761 H   0  0
   17.5964  -14.4216   -0.6685 H   0  0
   13.8588  -10.4157    1.8035 H   0  0
   16.0119  -13.3058    2.9164 H   0  0
   16.5716   -8.7015    2.5078 H   0  0
   17.1519  -15.1448    1.5448 H   0  0
   20.3359  -10.0278   -1.5029 H   0  0
   19.3190  -10.7320   -2.7833 H   0  0
   16.8900   -5.3794    1.0813 H   0  0
   17.7636   -6.3896    2.2574 H   0  0
   16.0081   -6.1479    2.4224 H   0  0
   19.1404   -8.4731   -3.8749 H   0  0
   20.1738   -7.7808   -2.6012 H   0  0
   22.0359   -9.3147   -3.3184 H   0  0
   21.0012   -9.9225   -4.6335 H   0  0
   21.9780   -7.1047   -4.2622 H   0  0
   23.6248   -8.6834   -5.0922 H   0  0
   22.4789   -9.1909   -6.3565 H   0  0
   22.4613   -6.8089   -7.2077 H   0  0
   23.7339   -6.4228   -6.0241 H   0  0
   28.3537   -9.9304  -11.8414 H   0  0
   27.1638  -11.8592  -10.6588 H   0  0
   25.5187  -11.3936   -8.9443 H   0  0
   26.4589   -4.7894   -9.7331 H   0  0
   28.1981   -5.2748  -11.5379 H   0  0
   28.7392   -7.5453  -12.1664 H   0  0
  1  2  1  0
  2  3  1  0
  3  4  1  0
  4  5  1  0
  5  6  1  0
  6  1  1  0
  6  7  1  0
  2  8  1  0
  4  9  1  0
  1 10  1  0
  3 11  1  0
  7 12  1  0
  9 13  1  0
 11 14  1  0
 14 15  1  0
 14 16  2  0
 13 17  1  0
 17 18  1  0
 18 19  1  0
 19 20  1  0
 20 21  1  0
 21 22  1  0
 22 23  1  0
 23 24  1  0
 24 25  1  0
 25 26  2  0
 26 27  1  0
 27 22  1  0
 25 28  1  0
 28 29  2  0
 29 30  1  0
 30 31  2  0
 31 26  1  0
 24 32  2  0
 32 33  1  0
 33 34  2  0
 34 28  1  0
 27 35  2  0
 23 36  2  0
  1 37  1  0
  2 38  1  0
  3 39  1  0
  4 40  1  0
  6 41  1  0
  7 42  1  0
  7 43  1  0
  8 44  1  0
 10 45  1  0
 11 46  1  0
 12 47  1  0
 13 48  1  0
 13 49  1  0
 15 50  1  0
 15 51  1  0
 15 52  1  0
 17 53  1  0
 17 54  1  0
 18 55  1  0
 18 56  1  0
 19 57  1  0
 20 58  1  0
 20 59  1  0
 21 60  1  0
 21 61  1  0
 29 62  1  0
 30 63  1  0
 31 64  1  0
 32 65  1  0
 33 66  1  0
 34 67  1  0
M  END
> <Name>
15d Shen et al., 2018

> <Clean Energy>
3.69949889183044

> <Reference>
Shen et al., 2018

> <Forcefield>
MMFF

> <ForcefieldBase>
MMFF

> <ForcefieldFFML>
<?xml version="1.0" encoding="UTF-8"?>
<!DOCTYPE ffml SYSTEM "Ffml.dtd">
<ffml version="1.0">
<forcefield name="15d Shen et al., 2018-MMFF" derivedFrom="MMFF" base="MMFF">
<atomTypes>
<atomType
 name="C100"
 element="C"
 mass="12.011"
 annotation=""/>
<atomType
 name="O101"
 element="O"
 mass="16"
 annotation=""/>
<atomType
 name="S102"
 element="S"
 mass="32.066"
 annotation=""/>
<atomType
 name="N103"
 element="N"
 mass="14.007"
 annotation=""/>
<atomType
 name="H104"
 element="H"
 mass="1.008"
 annotation=""/>
</atomTypes>
<parameters>
</parameters>
</forcefield>
</ffml>

$$$$
15e Shen et al., 2018
  SciTegic07212313593D

 70 73  0  0  0  0            999 V2000
   15.7848  -10.9000    1.0346 C   0  0  1  0  0  0
   16.0287   -9.5439    1.6757 C   0  0  1  0  0  0
   16.4238   -8.5291    0.5993 C   0  0  2  0  0  0
   17.7150   -9.0580   -0.1371 C   0  0  1  0  0  0
   17.4423  -10.3613   -0.7140 O   0  0
   17.0869  -11.3327    0.3204 C   0  0  2  0  0  0
   16.8860  -12.7188   -0.3260 C   0  0
   14.8421   -9.1045    2.3434 O   0  0
   18.2223   -7.8817   -1.4667 S   0  0
   15.4350  -11.8398    2.0562 O   0  0
   16.6653   -7.2692    1.2934 N   0  0
   16.5725  -13.6891    0.6814 O   0  0
   19.7285   -8.3602   -2.3956 C   0  0
   16.7604   -6.0721    0.7149 C   0  0
   17.0060   -4.8666    1.5752 C   0  0
   16.6558   -5.9391   -0.5077 O   0  0
   20.1220   -7.1840   -3.3681 C   0  0
   21.3998   -7.5126   -4.2170 C   0  0
   21.7887   -6.3362   -5.0703 N   0  0
   22.9739   -6.6647   -5.9285 C   0  0
   23.4617   -5.4112   -6.7405 C   0  0
   24.6871   -5.7903   -7.6540 C   0  0
   25.3543   -4.6922   -8.4370 N   0  0
   25.1535   -3.2860   -8.2067 C   0  0
   25.8983   -2.3162   -9.0108 C   0  0
   26.8222   -2.7714  -10.0296 C   0  0
   26.9993   -4.0712  -10.2509 C   0  0
   26.2634   -5.0777   -9.4576 C   0  0
   27.5534   -1.7850  -10.8103 C   0  0
   28.4111   -2.1719  -11.7520 C   0  0
   28.6146   -3.6000  -12.0041 C   0  0
   27.9440   -4.5046  -11.2897 C   0  0
   25.7336   -1.0089   -8.8000 C   0  0
   26.4755   -0.0032   -9.5922 C   0  0
   27.3366   -0.3711  -10.5419 C   0  0
   26.4599   -6.2778   -9.6767 O   0  0
   24.3924   -2.8564   -7.3349 O   0  0
   14.9743  -10.8246    0.3097 H   0  0
   16.8375   -9.6305    2.4013 H   0  0
   15.6101   -8.4098   -0.1160 H   0  0
   18.5254   -9.1503    0.5858 H   0  0
   17.8942  -11.3909    1.0505 H   0  0
   16.0675  -12.6668   -1.0440 H   0  0
   17.8015  -13.0139   -0.8387 H   0  0
   14.0585   -9.0246    1.6491 H   0  0
   16.2198  -11.9116    2.7501 H   0  0
   16.7754   -7.3092    2.3569 H   0  0
   17.3600  -13.7423    1.3739 H   0  0
   20.5449   -8.5469   -1.6979 H   0  0
   19.5305   -9.2627   -2.9739 H   0  0
   17.0563   -3.9764    0.9483 H   0  0
   17.9480   -4.9873    2.1102 H   0  0
   16.1923   -4.7597    2.2926 H   0  0
   19.2895   -6.9975   -4.0465 H   0  0
   20.3158   -6.2899   -2.7755 H   0  0
   22.2230   -7.7547   -3.5449 H   0  0
   21.1917   -8.3676   -4.8601 H   0  0
   22.0340   -5.5098   -4.4363 H   0  0
   23.7871   -7.0122   -5.2912 H   0  0
   22.6969   -7.4538   -6.6276 H   0  0
   22.6459   -5.0495   -7.3664 H   0  0
   23.7616   -4.6275   -6.0448 H   0  0
   25.4455   -6.2349   -7.0097 H   0  0
   24.3382   -6.5330   -8.3714 H   0  0
   28.9591   -1.4296  -12.3324 H   0  0
   29.3138   -3.9233  -12.7752 H   0  0
   28.0969   -5.5675  -11.4767 H   0  0
   25.0389   -0.6754   -8.0291 H   0  0
   26.3154    1.0570   -9.3961 H   0  0
   27.8755    0.3838  -11.1146 H   0  0
  1  2  1  0
  2  3  1  0
  3  4  1  0
  4  5  1  0
  5  6  1  0
  6  1  1  0
  6  7  1  0
  2  8  1  0
  4  9  1  0
  1 10  1  0
  3 11  1  0
  7 12  1  0
  9 13  1  0
 11 14  1  0
 14 15  1  0
 14 16  2  0
 13 17  1  0
 17 18  1  0
 18 19  1  0
 19 20  1  0
 20 21  1  0
 21 22  1  0
 22 23  1  0
 23 24  1  0
 24 25  1  0
 25 26  1  0
 26 27  2  0
 27 28  1  0
 28 23  1  0
 26 29  1  0
 29 30  2  0
 30 31  1  0
 31 32  2  0
 32 27  1  0
 25 33  2  0
 33 34  1  0
 34 35  2  0
 35 29  1  0
 28 36  2  0
 24 37  2  0
  1 38  1  0
  2 39  1  0
  3 40  1  0
  4 41  1  0
  6 42  1  0
  7 43  1  0
  7 44  1  0
  8 45  1  0
 10 46  1  0
 11 47  1  0
 12 48  1  0
 13 49  1  0
 13 50  1  0
 15 51  1  0
 15 52  1  0
 15 53  1  0
 17 54  1  0
 17 55  1  0
 18 56  1  0
 18 57  1  0
 19 58  1  0
 20 59  1  0
 20 60  1  0
 21 61  1  0
 21 62  1  0
 22 63  1  0
 22 64  1  0
 30 65  1  0
 31 66  1  0
 32 67  1  0
 33 68  1  0
 34 69  1  0
 35 70  1  0
M  END
> <Name>
15e Shen et al., 2018

> <Clean Energy>
4.08164072036743

> <Reference>
Shen et al., 2018

> <Forcefield>
MMFF

> <ForcefieldBase>
MMFF

> <ForcefieldFFML>
<?xml version="1.0" encoding="UTF-8"?>
<!DOCTYPE ffml SYSTEM "Ffml.dtd">
<ffml version="1.0">
<forcefield name="15e Shen et al., 2018-MMFF" derivedFrom="MMFF" base="MMFF">
<atomTypes>
<atomType
 name="C100"
 element="C"
 mass="12.011"
 annotation=""/>
<atomType
 name="O101"
 element="O"
 mass="16"
 annotation=""/>
<atomType
 name="S102"
 element="S"
 mass="32.066"
 annotation=""/>
<atomType
 name="N103"
 element="N"
 mass="14.007"
 annotation=""/>
<atomType
 name="H104"
 element="H"
 mass="1.008"
 annotation=""/>
</atomTypes>
<parameters>
</parameters>
</forcefield>
</ffml>

$$$$
15f Shen et al., 2018
  SciTegic07212313593D

 73 76  0  0  0  0            999 V2000
   16.3917  -11.9222    0.3395 C   0  0  1  0  0  0
   16.6370  -10.5650    0.9772 C   0  0  1  0  0  0
   17.0359   -9.5529   -0.1019 C   0  0  2  0  0  0
   18.3291  -10.0869   -0.8361 C   0  0  1  0  0  0
   18.0532  -11.3913   -1.4084 O   0  0
   17.6938  -12.3589   -0.3717 C   0  0  2  0  0  0
   17.4913  -13.7461   -1.0152 C   0  0
   15.4498  -10.1224    1.6422 O   0  0
   18.8512   -8.9205   -2.1739 S   0  0
   16.0389  -12.8590    1.3631 O   0  0
   17.2754   -8.2925    0.5908 N   0  0
   17.1748  -14.7136   -0.0062 O   0  0
   20.3581   -9.4272   -3.0952 C   0  0
   17.3807   -7.0981    0.0101 C   0  0
   17.6203   -5.8907    0.8697 C   0  0
   17.2889   -6.9686   -1.2138 O   0  0
   20.7844   -8.2733   -4.0867 C   0  0
   22.0637   -8.6511   -4.9204 C   0  0
   22.5027   -7.5094   -5.8032 N   0  0
   23.6756   -7.9167   -6.6517 C   0  0
   24.2085   -6.7306   -7.5404 C   0  0
   25.3706   -7.2322   -8.4736 C   0  0
   25.9462   -6.0781   -9.3813 C   0  0
   26.9869   -6.4558  -10.4108 N   0  0
   27.6670   -5.4063  -11.0739 C   0  0
   28.6554   -5.7055  -12.1154 C   0  0
   28.9464   -7.0811  -12.4547 C   0  0
   28.3185   -8.0790  -11.8364 C   0  0
   27.3207   -7.8172  -10.7810 C   0  0
   29.9220   -7.3611  -13.4983 C   0  0
   30.2056   -8.6172  -13.8352 C   0  0
   29.5244   -9.7203  -13.1568 C   0  0
   28.6296   -9.4641  -12.2032 C   0  0
   29.2903   -4.7164  -12.7498 C   0  0
   30.2890   -4.9977  -13.8090 C   0  0
   30.5878   -6.2492  -14.1604 C   0  0
   26.7728   -8.7949  -10.2643 O   0  0
   27.4133   -4.2298  -10.7935 O   0  0
   15.5823  -11.8474   -0.3867 H   0  0
   17.4445  -10.6511    1.7043 H   0  0
   16.2235   -9.4344   -0.8190 H   0  0
   19.1371  -10.1805   -0.1104 H   0  0
   18.4999  -12.4169    0.3597 H   0  0
   16.6739  -13.6943   -1.7344 H   0  0
   18.4070  -14.0439   -1.5260 H   0  0
   14.6672  -10.0432    0.9466 H   0  0
   16.8226  -12.9303    2.0582 H   0  0
   17.3752   -8.3301    1.6555 H   0  0
   17.9612  -14.7666    0.6875 H   0  0
   21.1675   -9.6175   -2.3904 H   0  0
   20.1487  -10.3341   -3.6624 H   0  0
   17.6804   -5.0025    0.2409 H   0  0
   18.5558   -6.0127    1.4157 H   0  0
   16.7989   -5.7793    1.5776 H   0  0
   19.9615   -8.0795   -4.7747 H   0  0
   20.9951   -7.3735   -3.5087 H   0  0
   22.8731   -8.9002   -4.2342 H   0  0
   21.8372   -9.5153   -5.5450 H   0  0
   22.7842   -6.6790   -5.1898 H   0  0
   24.4802   -8.2548   -5.9988 H   0  0
   23.3691   -8.7339   -7.3046 H   0  0
   23.3939   -6.3464   -8.1544 H   0  0
   24.5828   -5.9365   -6.8943 H   0  0
   26.1755   -7.6241   -7.8519 H   0  0
   24.9875   -8.0254   -9.1155 H   0  0
   25.1065   -5.6318   -9.9141 H   0  0
   26.3942   -5.3357   -8.7210 H   0  0
   30.9416   -8.8231  -14.6125 H   0  0
   29.7487  -10.7511  -13.4314 H   0  0
   28.1274  -10.2868  -11.6942 H   0  0
   29.0699   -3.6826  -12.4839 H   0  0
   30.7877   -4.1674  -14.3090 H   0  0
   31.3266   -6.4382  -14.9392 H   0  0
  1  2  1  0
  2  3  1  0
  3  4  1  0
  4  5  1  0
  5  6  1  0
  6  1  1  0
  6  7  1  0
  2  8  1  0
  4  9  1  0
  1 10  1  0
  3 11  1  0
  7 12  1  0
  9 13  1  0
 11 14  1  0
 14 15  1  0
 14 16  2  0
 13 17  1  0
 17 18  1  0
 18 19  1  0
 19 20  1  0
 20 21  1  0
 21 22  1  0
 22 23  1  0
 23 24  1  0
 24 25  1  0
 25 26  1  0
 26 27  1  0
 27 28  2  0
 28 29  1  0
 29 24  1  0
 27 30  1  0
 30 31  2  0
 31 32  1  0
 32 33  2  0
 33 28  1  0
 26 34  2  0
 34 35  1  0
 35 36  2  0
 36 30  1  0
 29 37  2  0
 25 38  2  0
  1 39  1  0
  2 40  1  0
  3 41  1  0
  4 42  1  0
  6 43  1  0
  7 44  1  0
  7 45  1  0
  8 46  1  0
 10 47  1  0
 11 48  1  0
 12 49  1  0
 13 50  1  0
 13 51  1  0
 15 52  1  0
 15 53  1  0
 15 54  1  0
 17 55  1  0
 17 56  1  0
 18 57  1  0
 18 58  1  0
 19 59  1  0
 20 60  1  0
 20 61  1  0
 21 62  1  0
 21 63  1  0
 22 64  1  0
 22 65  1  0
 23 66  1  0
 23 67  1  0
 31 68  1  0
 32 69  1  0
 33 70  1  0
 34 71  1  0
 35 72  1  0
 36 73  1  0
M  END
> <Name>
15f Shen et al., 2018

> <Clean Energy>
4.90741586685181

> <Reference>
Shen et al., 2018

> <Forcefield>
MMFF

> <ForcefieldBase>
MMFF

> <ForcefieldFFML>
<?xml version="1.0" encoding="UTF-8"?>
<!DOCTYPE ffml SYSTEM "Ffml.dtd">
<ffml version="1.0">
<forcefield name="15f Shen et al., 2018-MMFF" derivedFrom="MMFF" base="MMFF">
<atomTypes>
<atomType
 name="C100"
 element="C"
 mass="12.011"
 annotation=""/>
<atomType
 name="O101"
 element="O"
 mass="16"
 annotation=""/>
<atomType
 name="S102"
 element="S"
 mass="32.066"
 annotation=""/>
<atomType
 name="N103"
 element="N"
 mass="14.007"
 annotation=""/>
<atomType
 name="H104"
 element="H"
 mass="1.008"
 annotation=""/>
</atomTypes>
<parameters>
</parameters>
</forcefield>
</ffml>

$$$$
15g Shen et al., 2018
  SciTegic07212313593D

 73 76  0  0  0  0            999 V2000
   16.3884  -11.9240    0.3437 C   0  0  1  0  0  0
   16.6340  -10.5668    0.9814 C   0  0  1  0  0  0
   17.0321   -9.5546   -0.0981 C   0  0  2  0  0  0
   18.3250  -10.0887   -0.8332 C   0  0  1  0  0  0
   18.0487  -11.3932   -1.4051 O   0  0
   17.6900  -12.3606   -0.3683 C   0  0  2  0  0  0
   17.4873  -13.7478   -1.0118 C   0  0
   15.4472  -10.1243    1.6471 O   0  0
   18.8464   -8.9233   -2.1721 S   0  0
   16.0362  -12.8608    1.3675 O   0  0
   17.2719   -8.2942    0.5948 N   0  0
   17.1714  -14.7154   -0.0027 O   0  0
   20.3522   -9.4320   -3.0940 C   0  0
   17.3786   -7.0998    0.0143 C   0  0
   17.6181   -5.8927    0.8744 C   0  0
   17.2883   -6.9700   -1.2096 O   0  0
   20.7773   -8.2808   -4.0889 C   0  0
   22.0572   -8.6602   -4.9210 C   0  0
   22.5163   -7.4676   -5.8478 C   0  0
   23.7669   -7.8799   -6.7102 C   0  0
   24.2601   -6.7503   -7.5737 N   0  0
   25.3693   -7.2309   -8.4664 C   0  0
   25.9399   -6.0786   -9.3796 C   0  0
   26.9817   -6.4562  -10.4081 N   0  0
   27.6620   -5.4066  -11.0711 C   0  0
   28.6518   -5.7058  -12.1111 C   0  0
   28.9407   -7.0812  -12.4525 C   0  0
   28.3156   -8.0792  -11.8317 C   0  0
   27.3154   -7.8174  -10.7783 C   0  0
   29.9193   -7.3610  -13.4933 C   0  0
   30.2020   -8.6171  -13.8313 C   0  0
   29.5214   -9.7203  -13.1525 C   0  0
   28.6253   -9.4642  -12.2001 C   0  0
   29.2857   -4.7165  -12.7463 C   0  0
   30.2857   -4.9976  -13.8043 C   0  0
   30.5843   -6.2491  -14.1560 C   0  0
   26.7675   -8.7950  -10.2614 O   0  0
   27.4080   -4.2301  -10.7909 O   0  0
   15.5785  -11.8492   -0.3819 H   0  0
   17.4419  -10.6528    1.7079 H   0  0
   16.2193   -9.4362   -0.8146 H   0  0
   19.1335  -10.1822   -0.1081 H   0  0
   18.4966  -12.4187    0.3626 H   0  0
   16.6694  -13.6960   -1.7305 H   0  0
   18.4027  -14.0455   -1.5231 H   0  0
   14.6642  -10.0451    0.9520 H   0  0
   16.8204  -12.9322    2.0622 H   0  0
   17.3705   -8.3318    1.6596 H   0  0
   17.9582  -14.7685    0.6905 H   0  0
   21.1625   -9.6203   -2.3896 H   0  0
   20.1424  -10.3404   -3.6586 H   0  0
   17.6795   -5.0044    0.2458 H   0  0
   18.5529   -6.0154    1.4215 H   0  0
   16.7959   -5.7808    1.5813 H   0  0
   19.9544   -8.0901   -4.7777 H   0  0
   20.9869   -7.3790   -3.5137 H   0  0
   22.8665   -8.9069   -4.2338 H   0  0
   21.8316   -9.5262   -5.5433 H   0  0
   21.6968   -7.1966   -6.5136 H   0  0
   22.7778   -6.6117   -5.2256 H   0  0
   24.5701   -8.1854   -6.0397 H   0  0
   23.4902   -8.7166   -7.3516 H   0  0
   24.6245   -5.9610   -6.9499 H   0  0
   26.1767   -7.6189   -7.8452 H   0  0
   24.9863   -8.0274   -9.1044 H   0  0
   25.0981   -5.6381   -9.9139 H   0  0
   26.3851   -5.3314   -8.7227 H   0  0
   30.9367   -8.8228  -14.6098 H   0  0
   29.7473  -10.7511  -13.4257 H   0  0
   28.1209  -10.2869  -11.6933 H   0  0
   29.0636   -3.6826  -12.4818 H   0  0
   30.7854   -4.1673  -14.3032 H   0  0
   31.3223   -6.4379  -14.9356 H   0  0
  1  2  1  0
  2  3  1  0
  3  4  1  0
  4  5  1  0
  5  6  1  0
  6  1  1  0
  6  7  1  0
  2  8  1  0
  4  9  1  0
  1 10  1  0
  3 11  1  0
  7 12  1  0
  9 13  1  0
 11 14  1  0
 14 15  1  0
 14 16  2  0
 13 17  1  0
 17 18  1  0
 18 19  1  0
 19 20  1  0
 20 21  1  0
 21 22  1  0
 22 23  1  0
 23 24  1  0
 24 25  1  0
 25 26  1  0
 26 27  1  0
 27 28  2  0
 28 29  1  0
 29 24  1  0
 27 30  1  0
 30 31  2  0
 31 32  1  0
 32 33  2  0
 33 28  1  0
 26 34  2  0
 34 35  1  0
 35 36  2  0
 36 30  1  0
 29 37  2  0
 25 38  2  0
  1 39  1  0
  2 40  1  0
  3 41  1  0
  4 42  1  0
  6 43  1  0
  7 44  1  0
  7 45  1  0
  8 46  1  0
 10 47  1  0
 11 48  1  0
 12 49  1  0
 13 50  1  0
 13 51  1  0
 15 52  1  0
 15 53  1  0
 15 54  1  0
 17 55  1  0
 17 56  1  0
 18 57  1  0
 18 58  1  0
 19 59  1  0
 19 60  1  0
 20 61  1  0
 20 62  1  0
 21 63  1  0
 22 64  1  0
 22 65  1  0
 23 66  1  0
 23 67  1  0
 31 68  1  0
 32 69  1  0
 33 70  1  0
 34 71  1  0
 35 72  1  0
 36 73  1  0
M  END
> <Name>
15g Shen et al., 2018

> <Clean Energy>
4.64378547668457

> <Reference>
Shen et al., 2018

> <Forcefield>
MMFF

> <ForcefieldBase>
MMFF

> <ForcefieldFFML>
<?xml version="1.0" encoding="UTF-8"?>
<!DOCTYPE ffml SYSTEM "Ffml.dtd">
<ffml version="1.0">
<forcefield name="15g Shen et al., 2018-MMFF" derivedFrom="MMFF" base="MMFF">
<atomTypes>
<atomType
 name="C100"
 element="C"
 mass="12.011"
 annotation=""/>
<atomType
 name="O101"
 element="O"
 mass="16"
 annotation=""/>
<atomType
 name="S102"
 element="S"
 mass="32.066"
 annotation=""/>
<atomType
 name="N103"
 element="N"
 mass="14.007"
 annotation=""/>
<atomType
 name="H104"
 element="H"
 mass="1.008"
 annotation=""/>
</atomTypes>
<parameters>
</parameters>
</forcefield>
</ffml>

$$$$
15h Shen et al., 2018
  SciTegic07212313593D

 76 79  0  0  0  0            999 V2000
   15.9641  -11.0035    0.8370 C   0  0  1  0  0  0
   16.2106   -9.6473    1.4751 C   0  0  1  0  0  0
   16.6099   -8.6348    0.3961 C   0  0  2  0  0  0
   17.9040   -9.1667   -0.3402 C   0  0  1  0  0  0
   17.6271  -10.4722   -0.9128 O   0  0
   17.2661  -11.4408    0.1253 C   0  0  2  0  0  0
   17.0614  -12.8282   -0.5176 C   0  0
   15.0237   -9.2041    2.1406 O   0  0
   18.4222   -7.9914   -1.6773 S   0  0
   15.6105  -11.9402    1.8608 O   0  0
   16.8505   -7.3755    1.0895 N   0  0
   16.7432  -13.7949    0.4921 O   0  0
   19.9359   -8.4712   -2.6086 C   0  0
   16.9475   -6.1802    0.5096 C   0  0
   17.1901   -4.9732    1.3688 C   0  0
   16.8462   -6.0499   -0.7134 O   0  0
   20.3413   -7.3002   -3.5950 C   0  0
   21.6292   -7.6379   -4.4411 C   0  0
   22.0511   -6.4179   -5.3571 C   0  0
   23.3130   -6.7672   -6.2407 C   0  0
   23.7550   -5.5928   -7.0806 N   0  0
   24.9085   -5.9714   -7.9772 C   0  0
   25.4431   -4.7329   -8.7935 C   0  0
   26.6319   -5.1464   -9.7527 C   0  0
   27.3207   -4.0561  -10.5427 N   0  0
   27.1339   -2.6460  -10.3205 C   0  0
   27.8889   -1.6855  -11.1263 C   0  0
   28.8080   -2.1496  -12.1449 C   0  0
   28.9800   -3.4514  -12.3592 C   0  0
   28.2318   -4.4530  -11.5639 C   0  0
   29.5498   -1.1690  -12.9250 C   0  0
   30.4046   -1.5631  -13.8662 C   0  0
   30.6003   -2.9931  -14.1137 C   0  0
   29.9222   -3.8924  -13.3989 C   0  0
   27.7311   -0.3766  -10.9210 C   0  0
   28.4809    0.6226  -11.7136 C   0  0
   29.3403    0.2471  -12.6617 C   0  0
   28.4201   -5.6550  -11.7806 O   0  0
   26.3741   -2.2037   -9.4544 O   0  0
   15.1546  -10.9277    0.1110 H   0  0
   17.0182   -9.7343    2.2019 H   0  0
   15.7973   -8.5152   -0.3204 H   0  0
   18.7127   -9.2603    0.3845 H   0  0
   18.0722  -11.4998    0.8566 H   0  0
   16.2442  -12.7755   -1.2369 H   0  0
   17.9767  -13.1278   -1.0281 H   0  0
   14.2411   -9.1241    1.4452 H   0  0
   16.3943  -12.0124    2.5557 H   0  0
   16.9582   -7.4145    2.1534 H   0  0
   17.5295  -13.8489    1.1860 H   0  0
   20.7507   -8.6546   -1.9081 H   0  0
   19.7381   -9.3770   -3.1818 H   0  0
   17.2426   -4.0840    0.7406 H   0  0
   18.1303   -5.0929    1.9073 H   0  0
   16.3740   -4.8650    2.0831 H   0  0
   19.5125   -7.1175   -4.2790 H   0  0
   20.5344   -6.4016   -3.0091 H   0  0
   22.4490   -7.8720   -3.7618 H   0  0
   21.4225   -8.5016   -5.0731 H   0  0
   21.2188   -6.1633   -6.0133 H   0  0
   22.2885   -5.5641   -4.7225 H   0  0
   24.1327   -7.0592   -5.5843 H   0  0
   23.0619   -7.5976   -6.9006 H   0  0
   24.0610   -4.7965   -6.4347 H   0  0
   25.7182   -6.3660   -7.3634 H   0  0
   24.5753   -6.7381   -8.6766 H   0  0
   24.6292   -4.3245   -9.3926 H   0  0
   25.7975   -3.9741   -8.0958 H   0  0
   27.3911   -5.6294   -9.1376 H   0  0
   26.2342   -5.8641  -10.4702 H   0  0
   30.9558   -0.8255  -14.4495 H   0  0
   31.2999   -3.3226  -14.8818 H   0  0
   30.0667   -4.9565  -13.5858 H   0  0
   27.0357   -0.0365  -10.1536 H   0  0
   28.3282    1.6842  -11.5192 H   0  0
   29.8833    0.9971  -13.2368 H   0  0
  1  2  1  0
  2  3  1  0
  3  4  1  0
  4  5  1  0
  5  6  1  0
  6  1  1  0
  6  7  1  0
  2  8  1  0
  4  9  1  0
  1 10  1  0
  3 11  1  0
  7 12  1  0
  9 13  1  0
 11 14  1  0
 14 15  1  0
 14 16  2  0
 13 17  1  0
 17 18  1  0
 18 19  1  0
 19 20  1  0
 20 21  1  0
 21 22  1  0
 22 23  1  0
 23 24  1  0
 24 25  1  0
 25 26  1  0
 26 27  1  0
 27 28  1  0
 28 29  2  0
 29 30  1  0
 30 25  1  0
 28 31  1  0
 31 32  2  0
 32 33  1  0
 33 34  2  0
 34 29  1  0
 27 35  2  0
 35 36  1  0
 36 37  2  0
 37 31  1  0
 30 38  2  0
 26 39  2  0
  1 40  1  0
  2 41  1  0
  3 42  1  0
  4 43  1  0
  6 44  1  0
  7 45  1  0
  7 46  1  0
  8 47  1  0
 10 48  1  0
 11 49  1  0
 12 50  1  0
 13 51  1  0
 13 52  1  0
 15 53  1  0
 15 54  1  0
 15 55  1  0
 17 56  1  0
 17 57  1  0
 18 58  1  0
 18 59  1  0
 19 60  1  0
 19 61  1  0
 20 62  1  0
 20 63  1  0
 21 64  1  0
 22 65  1  0
 22 66  1  0
 23 67  1  0
 23 68  1  0
 24 69  1  0
 24 70  1  0
 32 71  1  0
 33 72  1  0
 34 73  1  0
 35 74  1  0
 36 75  1  0
 37 76  1  0
M  END
> <Name>
15h Shen et al., 2018

> <Clean Energy>
5.16077470779419

> <Reference>
Shen et al., 2018

> <Forcefield>
MMFF

> <ForcefieldBase>
MMFF

> <ForcefieldFFML>
<?xml version="1.0" encoding="UTF-8"?>
<!DOCTYPE ffml SYSTEM "Ffml.dtd">
<ffml version="1.0">
<forcefield name="15h Shen et al., 2018-MMFF" derivedFrom="MMFF" base="MMFF">
<atomTypes>
<atomType
 name="C100"
 element="C"
 mass="12.011"
 annotation=""/>
<atomType
 name="O101"
 element="O"
 mass="16"
 annotation=""/>
<atomType
 name="S102"
 element="S"
 mass="32.066"
 annotation=""/>
<atomType
 name="N103"
 element="N"
 mass="14.007"
 annotation=""/>
<atomType
 name="H104"
 element="H"
 mass="1.008"
 annotation=""/>
</atomTypes>
<parameters>
</parameters>
</forcefield>
</ffml>

$$$$
15i Shen et al., 2018
  SciTegic07212313593D

 79 82  0  0  0  0            999 V2000
   16.5612  -11.9670    0.1566 C   0  0  1  0  0  0
   16.8066  -10.6105    0.7937 C   0  0  1  0  0  0
   17.2056   -9.5974   -0.2862 C   0  0  2  0  0  0
   18.5018  -10.1289   -1.0236 C   0  0  1  0  0  0
   18.2243  -11.4354   -1.5941 O   0  0
   17.8633  -12.4036   -0.5549 C   0  0  2  0  0  0
   17.6594  -13.7916   -1.1969 C   0  0
   15.6190  -10.1684    1.4591 O   0  0
   19.0263   -8.9569   -2.3663 S   0  0
   16.2083  -12.9036    1.1810 O   0  0
   17.4426   -8.3386    0.4090 N   0  0
   17.3417  -14.7580   -0.1867 O   0  0
   20.5412   -9.4490   -3.2971 C   0  0
   17.5470   -7.1435   -0.1693 C   0  0
   17.7831   -5.9374    0.6931 C   0  0
   17.4570   -7.0123   -1.3930 O   0  0
   20.9624   -8.2916   -4.2994 C   0  0
   22.2519   -8.6578   -5.1391 C   0  0
   22.7053   -7.4611   -6.0788 C   0  0
   23.9690   -7.8589   -6.9471 C   0  0
   24.4585   -6.7218   -7.8209 N   0  0
   25.6013   -7.1793   -8.7029 C   0  0
   26.1859   -6.0116   -9.5959 C   0  0
   27.3196   -6.5490  -10.5596 C   0  0
   27.9338   -5.3947  -11.4533 C   0  0
   28.9678   -5.7722  -12.4967 N   0  0
   29.6444   -4.7196  -13.1631 C   0  0
   30.6300   -5.0147  -14.2103 C   0  0
   30.9188   -6.3883  -14.5575 C   0  0
   30.2973   -7.3891  -13.9367 C   0  0
   29.2995   -7.1309  -12.8741 C   0  0
   31.8941   -6.6633  -15.6046 C   0  0
   32.1774   -7.9177  -15.9481 C   0  0
   31.5010   -9.0240  -15.2698 C   0  0
   30.6084   -8.7727  -14.3123 C   0  0
   31.2605   -4.0225  -14.8451 C   0  0
   32.2564   -4.2984  -15.9090 C   0  0
   32.5551   -5.5481  -16.2666 C   0  0
   28.7557   -8.1085  -12.3532 O   0  0
   29.3930   -3.5440  -12.8771 O   0  0
   15.7516  -11.8922   -0.5695 H   0  0
   17.6142  -10.6965    1.5207 H   0  0
   16.3929   -9.4788   -1.0027 H   0  0
   19.3099  -10.2225   -0.2981 H   0  0
   18.6694  -12.4617    0.1765 H   0  0
   16.8421  -13.7397   -1.9163 H   0  0
   18.5749  -14.0909   -1.7072 H   0  0
   14.8363  -10.0896    0.7636 H   0  0
   16.9922  -12.9747    1.8760 H   0  0
   17.5409   -8.3779    1.4737 H   0  0
   18.1279  -14.8111    0.5072 H   0  0
   21.3538   -9.6307   -2.5937 H   0  0
   20.3382  -10.3591   -3.8616 H   0  0
   17.8431   -5.0479    0.0661 H   0  0
   18.7177   -6.0590    1.2407 H   0  0
   16.9601   -5.8285    1.3995 H   0  0
   20.1375   -8.1080   -4.9878 H   0  0
   21.1646   -7.3878   -3.7246 H   0  0
   23.0645   -8.8936   -4.4521 H   0  0
   22.0341   -9.5284   -5.7576 H   0  0
   21.8832   -7.2026   -6.7462 H   0  0
   22.9566   -6.5995   -5.4603 H   0  0
   24.7748   -8.1543   -6.2752 H   0  0
   23.7018   -8.7001   -7.5867 H   0  0
   24.7951   -5.9198   -7.1977 H   0  0
   26.3987   -7.5660   -8.0683 H   0  0
   25.2406   -7.9724   -9.3579 H   0  0
   25.3818   -5.5843  -10.1950 H   0  0
   26.6046   -5.2422   -8.9472 H   0  0
   28.1146   -6.9883   -9.9571 H   0  0
   26.8944   -7.3112  -11.2126 H   0  0
   27.1062   -4.9157  -11.9766 H   0  0
   28.4017   -4.6776  -10.7788 H   0  0
   32.9091   -8.1198  -16.7303 H   0  0
   31.7272  -10.0534  -15.5475 H   0  0
   30.1078   -9.5983  -13.8064 H   0  0
   31.0385   -2.9899  -14.5759 H   0  0
   32.7527   -3.4655  -16.4072 H   0  0
   33.2899   -5.7333  -17.0501 H   0  0
  1  2  1  0
  2  3  1  0
  3  4  1  0
  4  5  1  0
  5  6  1  0
  6  1  1  0
  6  7  1  0
  2  8  1  0
  4  9  1  0
  1 10  1  0
  3 11  1  0
  7 12  1  0
  9 13  1  0
 11 14  1  0
 14 15  1  0
 14 16  2  0
 13 17  1  0
 17 18  1  0
 18 19  1  0
 19 20  1  0
 20 21  1  0
 21 22  1  0
 22 23  1  0
 23 24  1  0
 24 25  1  0
 26 25  1  0
 26 27  1  0
 27 28  1  0
 28 29  1  0
 29 30  2  0
 30 31  1  0
 31 26  1  0
 29 32  1  0
 32 33  2  0
 33 34  1  0
 34 35  2  0
 35 30  1  0
 28 36  2  0
 36 37  1  0
 37 38  2  0
 38 32  1  0
 31 39  2  0
 27 40  2  0
  1 41  1  0
  2 42  1  0
  3 43  1  0
  4 44  1  0
  6 45  1  0
  7 46  1  0
  7 47  1  0
  8 48  1  0
 10 49  1  0
 11 50  1  0
 12 51  1  0
 13 52  1  0
 13 53  1  0
 15 54  1  0
 15 55  1  0
 15 56  1  0
 17 57  1  0
 17 58  1  0
 18 59  1  0
 18 60  1  0
 19 61  1  0
 19 62  1  0
 20 63  1  0
 20 64  1  0
 21 65  1  0
 22 66  1  0
 22 67  1  0
 23 68  1  0
 23 69  1  0
 24 70  1  0
 24 71  1  0
 25 72  1  0
 25 73  1  0
 33 74  1  0
 34 75  1  0
 35 76  1  0
 36 77  1  0
 37 78  1  0
 38 79  1  0
M  END
> <Name>
15i Shen et al., 2018

> <Clean Energy>
6.00421190261841

> <Reference>
Shen et al., 2018

> <Forcefield>
MMFF

> <ForcefieldBase>
MMFF

> <ForcefieldFFML>
<?xml version="1.0" encoding="UTF-8"?>
<!DOCTYPE ffml SYSTEM "Ffml.dtd">
<ffml version="1.0">
<forcefield name="15i Shen et al., 2018-MMFF" derivedFrom="MMFF" base="MMFF">
<atomTypes>
<atomType
 name="C100"
 element="C"
 mass="12.011"
 annotation=""/>
<atomType
 name="O101"
 element="O"
 mass="16"
 annotation=""/>
<atomType
 name="S102"
 element="S"
 mass="32.066"
 annotation=""/>
<atomType
 name="N103"
 element="N"
 mass="14.007"
 annotation=""/>
<atomType
 name="H104"
 element="H"
 mass="1.008"
 annotation=""/>
</atomTypes>
<parameters>
</parameters>
</forcefield>
</ffml>

$$$$
15j Shen et al., 2018
  SciTegic07212313593D

 76 79  0  0  0  0            999 V2000
   15.9623  -11.0043    0.8391 C   0  0  1  0  0  0
   16.2086   -9.6482    1.4771 C   0  0  1  0  0  0
   16.6079   -8.6355    0.3982 C   0  0  2  0  0  0
   17.9021   -9.1674   -0.3382 C   0  0  1  0  0  0
   17.6251  -10.4728   -0.9108 O   0  0
   17.2643  -11.4415    0.1273 C   0  0  2  0  0  0
   17.0598  -12.8289   -0.5156 C   0  0
   15.0217   -9.2052    2.1427 O   0  0
   18.4208   -7.9921   -1.6752 S   0  0
   15.6087  -11.9412    1.8628 O   0  0
   16.8482   -7.3762    1.0919 N   0  0
   16.7417  -13.7957    0.4941 O   0  0
   19.9339   -8.4730   -2.6072 C   0  0
   16.9464   -6.1808    0.5123 C   0  0
   17.1884   -4.9741    1.3719 C   0  0
   16.8467   -6.0503   -0.7109 O   0  0
   20.3414   -7.3017   -3.5925 C   0  0
   21.6269   -7.6427   -4.4412 C   0  0
   22.0521   -6.4232   -5.3565 C   0  0
   23.3090   -6.7784   -6.2451 C   0  0
   23.7759   -5.5517   -7.1252 C   0  0
   24.9397   -5.9266   -8.0098 N   0  0
   25.4478   -4.7407   -8.7883 C   0  0
   26.6350   -5.1516   -9.7506 C   0  0
   27.3218   -4.0601  -10.5408 N   0  0
   27.1334   -2.6502  -10.3181 C   0  0
   27.8872   -1.6886  -11.1241 C   0  0
   28.8067   -2.1515  -12.1429 C   0  0
   28.9793   -3.4530  -12.3582 C   0  0
   28.2328   -4.4556  -11.5627 C   0  0
   29.5469   -1.1700  -12.9233 C   0  0
   30.4019   -1.5630  -13.8649 C   0  0
   30.5986   -2.9926  -14.1131 C   0  0
   29.9218   -3.8928  -13.3982 C   0  0
   27.7285   -0.3799  -10.9181 C   0  0
   28.4770    0.6202  -11.7108 C   0  0
   29.3364    0.2458  -12.6593 C   0  0
   28.4222   -5.6573  -11.7801 O   0  0
   26.3735   -2.2092   -9.4514 O   0  0
   15.1527  -10.9286    0.1131 H   0  0
   17.0162   -9.7351    2.2040 H   0  0
   15.7953   -8.5160   -0.3183 H   0  0
   18.7107   -9.2611    0.3867 H   0  0
   18.0704  -11.5004    0.8586 H   0  0
   16.2424  -12.7763   -1.2348 H   0  0
   17.9750  -13.1284   -1.0262 H   0  0
   14.2390   -9.1252    1.4473 H   0  0
   16.3926  -12.0133    2.5578 H   0  0
   16.9545   -7.4153    2.1559 H   0  0
   17.5280  -13.8496    1.1879 H   0  0
   20.7483   -8.6584   -1.9069 H   0  0
   19.7346   -9.3779   -3.1813 H   0  0
   17.2421   -4.0848    0.7439 H   0  0
   18.1278   -5.0943    1.9116 H   0  0
   16.3714   -4.8657    2.0852 H   0  0
   19.5121   -7.1151   -4.2749 H   0  0
   20.5386   -6.4046   -3.0056 H   0  0
   22.4468   -7.8805   -3.7635 H   0  0
   21.4160   -8.5048   -5.0739 H   0  0
   21.2189   -6.1628   -6.0093 H   0  0
   22.2965   -5.5718   -4.7214 H   0  0
   24.1294   -7.0754   -5.5918 H   0  0
   23.0509   -7.6069   -6.9048 H   0  0
   22.9446   -5.2260   -7.7505 H   0  0
   24.0775   -4.7366   -6.4674 H   0  0
   24.6241   -6.6837   -8.6968 H   0  0
   24.6323   -4.3319   -9.3850 H   0  0
   25.8029   -3.9830   -8.0898 H   0  0
   27.3958   -5.6349   -9.1376 H   0  0
   26.2364   -5.8687  -10.4682 H   0  0
   30.9525   -0.8247  -14.4478 H   0  0
   31.2980   -3.3213  -14.8818 H   0  0
   30.0675   -4.9567  -13.5852 H   0  0
   27.0333   -0.0407  -10.1501 H   0  0
   28.3233    1.6816  -11.5161 H   0  0
   29.8788    0.9966  -13.2341 H   0  0
  1  2  1  0
  2  3  1  0
  3  4  1  0
  4  5  1  0
  5  6  1  0
  6  1  1  0
  6  7  1  0
  2  8  1  0
  4  9  1  0
  1 10  1  0
  3 11  1  0
  7 12  1  0
  9 13  1  0
 11 14  1  0
 14 15  1  0
 14 16  2  0
 13 17  1  0
 17 18  1  0
 18 19  1  0
 19 20  1  0
 20 21  1  0
 21 22  1  0
 22 23  1  0
 23 24  1  0
 24 25  1  0
 25 26  1  0
 26 27  1  0
 27 28  1  0
 28 29  2  0
 29 30  1  0
 30 25  1  0
 28 31  1  0
 31 32  2  0
 32 33  1  0
 33 34  2  0
 34 29  1  0
 27 35  2  0
 35 36  1  0
 36 37  2  0
 37 31  1  0
 30 38  2  0
 26 39  2  0
  1 40  1  0
  2 41  1  0
  3 42  1  0
  4 43  1  0
  6 44  1  0
  7 45  1  0
  7 46  1  0
  8 47  1  0
 10 48  1  0
 11 49  1  0
 12 50  1  0
 13 51  1  0
 13 52  1  0
 15 53  1  0
 15 54  1  0
 15 55  1  0
 17 56  1  0
 17 57  1  0
 18 58  1  0
 18 59  1  0
 19 60  1  0
 19 61  1  0
 20 62  1  0
 20 63  1  0
 21 64  1  0
 21 65  1  0
 22 66  1  0
 23 67  1  0
 23 68  1  0
 24 69  1  0
 24 70  1  0
 32 71  1  0
 33 72  1  0
 34 73  1  0
 35 74  1  0
 36 75  1  0
 37 76  1  0
M  END
> <Name>
15j Shen et al., 2018

> <Clean Energy>
5.22345161437988

> <Reference>
Shen et al., 2018

> <Forcefield>
MMFF

> <ForcefieldBase>
MMFF

> <ForcefieldFFML>
<?xml version="1.0" encoding="UTF-8"?>
<!DOCTYPE ffml SYSTEM "Ffml.dtd">
<ffml version="1.0">
<forcefield name="15j Shen et al., 2018-MMFF" derivedFrom="MMFF" base="MMFF">
<atomTypes>
<atomType
 name="C100"
 element="C"
 mass="12.011"
 annotation=""/>
<atomType
 name="O101"
 element="O"
 mass="16"
 annotation=""/>
<atomType
 name="S102"
 element="S"
 mass="32.066"
 annotation=""/>
<atomType
 name="N103"
 element="N"
 mass="14.007"
 annotation=""/>
<atomType
 name="H104"
 element="H"
 mass="1.008"
 annotation=""/>
</atomTypes>
<parameters>
</parameters>
</forcefield>
</ffml>

$$$$
15k Shen et al., 2018
  SciTegic07212313593D

 79 82  0  0  0  0            999 V2000
   16.5612  -11.9661    0.1562 C   0  0  1  0  0  0
   16.8079  -10.6104    0.7947 C   0  0  1  0  0  0
   17.2078   -9.5969   -0.2843 C   0  0  2  0  0  0
   18.5031  -10.1288   -1.0218 C   0  0  1  0  0  0
   18.2247  -11.4343   -1.5938 O   0  0
   17.8630  -12.4031   -0.5557 C   0  0  2  0  0  0
   17.6581  -13.7903   -1.1990 C   0  0
   15.6208  -10.1677    1.4604 O   0  0
   19.0281   -8.9556   -2.3628 S   0  0
   16.2074  -12.9033    1.1796 O   0  0
   17.4469   -8.3389    0.4104 N   0  0
   17.3397  -14.7574   -0.1897 O   0  0
   20.5416   -9.4500   -3.2940 C   0  0
   17.5434   -7.1438   -0.1690 C   0  0
   17.7831   -5.9366    0.6907 C   0  0
   17.4432   -7.0141   -1.3922 O   0  0
   20.9633   -8.2945   -4.2977 C   0  0
   22.2508   -8.6645   -5.1379 C   0  0
   22.7043   -7.4712   -6.0810 C   0  0
   23.9656   -7.8740   -6.9498 C   0  0
   24.4774   -6.6893   -7.8699 C   0  0
   25.6401   -7.1390   -8.7288 N   0  0
   26.1897   -6.0222   -9.5865 C   0  0
   27.3224   -6.5567  -10.5526 C   0  0
   27.9294   -5.4017  -11.4498 C   0  0
   28.9637   -5.7770  -12.4934 N   0  0
   29.6390   -4.7231  -13.1587 C   0  0
   30.6252   -5.0161  -14.2057 C   0  0
   30.9153   -6.3890  -14.5545 C   0  0
   30.2950   -7.3911  -13.9346 C   0  0
   29.2966   -7.1350  -12.8722 C   0  0
   31.8915   -6.6620  -15.6013 C   0  0
   32.1760   -7.9157  -15.9460 C   0  0
   31.5007   -9.0234  -15.2689 C   0  0
   30.6074   -8.7740  -14.3115 C   0  0
   31.2547   -4.0226  -14.8395 C   0  0
   32.2512   -4.2964  -15.9033 C   0  0
   32.5513   -5.5454  -16.2621 C   0  0
   28.7536   -8.1137  -12.3525 O   0  0
   29.3864   -3.5481  -12.8714 O   0  0
   15.7517  -11.8899   -0.5698 H   0  0
   17.6154  -10.6978    1.5215 H   0  0
   16.3952   -9.4770   -1.0008 H   0  0
   19.3112  -10.2237   -0.2964 H   0  0
   18.6690  -12.4626    0.1757 H   0  0
   16.8409  -13.7371   -1.9183 H   0  0
   18.5734  -14.0898   -1.7097 H   0  0
   14.8381  -10.0874    0.7651 H   0  0
   16.9912  -12.9759    1.8745 H   0  0
   17.5538   -8.3784    1.4743 H   0  0
   18.1260  -14.8117    0.5041 H   0  0
   21.3546   -9.6317   -2.5910 H   0  0
   20.3374  -10.3605   -3.8574 H   0  0
   17.8355   -5.0472    0.0627 H   0  0
   18.7225   -6.0552    1.2307 H   0  0
   16.9656   -5.8295    1.4037 H   0  0
   20.1380   -8.1102   -4.9854 H   0  0
   21.1678   -7.3904   -3.7242 H   0  0
   23.0641   -8.8996   -4.4513 H   0  0
   22.0311   -9.5365   -5.7539 H   0  0
   21.8816   -7.2130   -6.7477 H   0  0
   22.9581   -6.6084   -5.4652 H   0  0
   24.7724   -8.1673   -6.2781 H   0  0
   23.6964   -8.7178   -7.5852 H   0  0
   23.6627   -6.3609   -8.5153 H   0  0
   24.7987   -5.8605   -7.2393 H   0  0
   25.3092   -7.9313   -9.3673 H   0  0
   25.3813   -5.6004  -10.1837 H   0  0
   26.6069   -5.2492   -8.9411 H   0  0
   28.1209   -6.9921   -9.9518 H   0  0
   26.8982   -7.3215  -11.2031 H   0  0
   27.0988   -4.9280  -11.9731 H   0  0
   28.3947   -4.6806  -10.7778 H   0  0
   32.9080   -8.1163  -16.7283 H   0  0
   31.7282  -10.0524  -15.5475 H   0  0
   30.1073   -9.6006  -13.8068 H   0  0
   31.0314   -2.9905  -14.5695 H   0  0
   32.7468   -3.4625  -16.4005 H   0  0
   33.2864   -5.7291  -17.0456 H   0  0
  1  2  1  0
  2  3  1  0
  3  4  1  0
  4  5  1  0
  5  6  1  0
  6  1  1  0
  6  7  1  0
  2  8  1  0
  4  9  1  0
  1 10  1  0
  3 11  1  0
  7 12  1  0
  9 13  1  0
 11 14  1  0
 14 15  1  0
 14 16  2  0
 13 17  1  0
 17 18  1  0
 18 19  1  0
 19 20  1  0
 20 21  1  0
 21 22  1  0
 22 23  1  0
 23 24  1  0
 24 25  1  0
 26 25  1  0
 26 27  1  0
 27 28  1  0
 28 29  1  0
 29 30  2  0
 30 31  1  0
 31 26  1  0
 29 32  1  0
 32 33  2  0
 33 34  1  0
 34 35  2  0
 35 30  1  0
 28 36  2  0
 36 37  1  0
 37 38  2  0
 38 32  1  0
 31 39  2  0
 27 40  2  0
  1 41  1  0
  2 42  1  0
  3 43  1  0
  4 44  1  0
  6 45  1  0
  7 46  1  0
  7 47  1  0
  8 48  1  0
 10 49  1  0
 11 50  1  0
 12 51  1  0
 13 52  1  0
 13 53  1  0
 15 54  1  0
 15 55  1  0
 15 56  1  0
 17 57  1  0
 17 58  1  0
 18 59  1  0
 18 60  1  0
 19 61  1  0
 19 62  1  0
 20 63  1  0
 20 64  1  0
 21 65  1  0
 21 66  1  0
 22 67  1  0
 23 68  1  0
 23 69  1  0
 24 70  1  0
 24 71  1  0
 25 72  1  0
 25 73  1  0
 33 74  1  0
 34 75  1  0
 35 76  1  0
 36 77  1  0
 37 78  1  0
 38 79  1  0
M  END
> <Name>
15k Shen et al., 2018

> <Clean Energy>
5.84762763977051

> <Reference>
Shen et al., 2018

> <Forcefield>
MMFF

> <ForcefieldBase>
MMFF

> <ForcefieldFFML>
<?xml version="1.0" encoding="UTF-8"?>
<!DOCTYPE ffml SYSTEM "Ffml.dtd">
<ffml version="1.0">
<forcefield name="15k Shen et al., 2018-MMFF" derivedFrom="MMFF" base="MMFF">
<atomTypes>
<atomType
 name="C100"
 element="C"
 mass="12.011"
 annotation=""/>
<atomType
 name="O101"
 element="O"
 mass="16"
 annotation=""/>
<atomType
 name="S102"
 element="S"
 mass="32.066"
 annotation=""/>
<atomType
 name="N103"
 element="N"
 mass="14.007"
 annotation=""/>
<atomType
 name="H104"
 element="H"
 mass="1.008"
 annotation=""/>
</atomTypes>
<parameters>
</parameters>
</forcefield>
</ffml>

$$$$
15l Shen et al., 2018
  SciTegic07212313593D

 82 85  0  0  0  0            999 V2000
   16.7734  -10.6924   -0.0227 C   0  0  1  0  0  0
   17.0205   -9.3363    0.6140 C   0  0  1  0  0  0
   17.4215   -8.3241   -0.4663 C   0  0  2  0  0  0
   18.7182   -8.8567   -1.2038 C   0  0  1  0  0  0
   18.4389  -10.1634   -1.7738 O   0  0
   18.0755  -11.1310   -0.7336 C   0  0  2  0  0  0
   17.8695  -12.5191   -1.3748 C   0  0
   15.8331   -8.8924    1.2788 O   0  0
   19.2441   -7.6819   -2.5468 S   0  0
   16.4186  -11.6282    1.0021 O   0  0
   17.6596   -7.0656    0.2282 N   0  0
   17.5496  -13.4845   -0.3642 O   0  0
   20.7623   -8.1638   -3.4828 C   0  0
   17.7601   -5.8709   -0.3511 C   0  0
   17.9981   -4.6638    0.5094 C   0  0
   17.6649   -5.7410   -1.5746 O   0  0
   21.1779   -6.9963   -4.4798 C   0  0
   22.4712   -7.3421   -5.3282 C   0  0
   22.9081   -6.1279   -6.2583 C   0  0
   24.1761   -6.4898   -7.1432 C   0  0
   24.6560   -5.2712   -8.0430 C   0  0
   25.8291   -5.6579   -8.9268 N   0  0
   26.3366   -4.4861   -9.7448 C   0  0
   27.5069   -4.9149  -10.7269 C   0  0
   28.0749   -3.6779  -11.5354 C   0  0
   29.2292   -4.1036  -12.5397 C   0  0
   29.9314   -3.0118  -13.3281 N   0  0
   29.7502   -1.6001  -13.1061 C   0  0
   30.5122   -0.6402  -13.9093 C   0  0
   31.4295   -1.1050  -14.9293 C   0  0
   31.6015   -2.4071  -15.1422 C   0  0
   30.8458   -3.4097  -14.3503 C   0  0
   32.1783   -0.1245  -15.7047 C   0  0
   33.0324   -0.5190  -16.6465 C   0  0
   33.2257   -1.9490  -16.8950 C   0  0
   32.5433   -2.8480  -16.1835 C   0  0
   30.3564    0.6692  -13.7042 C   0  0
   31.1111    1.6679  -14.4934 C   0  0
   31.9708    1.2918  -15.4410 C   0  0
   31.0315   -4.6117  -14.5698 O   0  0
   28.9884   -1.1555  -12.2433 O   0  0
   15.9642  -10.6168   -0.7491 H   0  0
   17.8276   -9.4233    1.3414 H   0  0
   16.6091   -8.2046   -1.1832 H   0  0
   19.5260   -8.9510   -0.4781 H   0  0
   18.8810  -11.1902   -0.0018 H   0  0
   17.0527  -12.4663   -2.0946 H   0  0
   18.7848  -12.8203   -1.8845 H   0  0
   15.0508   -8.8128    0.5830 H   0  0
   17.2021  -11.7003    1.6974 H   0  0
   17.7624   -7.1047    1.2926 H   0  0
   18.3354  -13.5385    0.3302 H   0  0
   21.5763   -8.3465   -2.7812 H   0  0
   20.5625   -9.0713   -4.0525 H   0  0
   18.0543   -3.7747   -0.1185 H   0  0
   18.9352   -4.7837    1.0532 H   0  0
   17.1779   -4.5555    1.2191 H   0  0
   20.3506   -6.8136   -5.1656 H   0  0
   21.3740   -6.0956   -3.8982 H   0  0
   23.2885   -7.5761   -4.6461 H   0  0
   22.2608   -8.2088   -5.9549 H   0  0
   22.0788   -5.8727   -6.9179 H   0  0
   23.1498   -5.2711   -5.6294 H   0  0
   24.9929   -6.7793   -6.4821 H   0  0
   23.9211   -7.3260   -7.7942 H   0  0
   23.8279   -4.9502   -8.6748 H   0  0
   24.9581   -4.4494   -7.3937 H   0  0
   25.5176   -6.4349   -9.5933 H   0  0
   25.5122   -4.0836  -10.3334 H   0  0
   26.7089   -3.7178   -9.0671 H   0  0
   28.3145   -5.3560  -10.1426 H   0  0
   27.1236   -5.6521  -11.4324 H   0  0
   27.2623   -3.2263  -12.1045 H   0  0
   28.4736   -2.9492  -10.8296 H   0  0
   29.9904   -4.6218  -11.9565 H   0  0
   28.7918   -4.7933  -13.2616 H   0  0
   33.5845    0.2182  -17.2294 H   0  0
   33.9272   -2.2791  -17.6612 H   0  0
   32.6837   -3.9120  -16.3741 H   0  0
   29.6586    1.0102  -12.9394 H   0  0
   30.9616    2.7295  -14.2968 H   0  0
   32.5155    2.0414  -16.0151 H   0  0
  1  2  1  0
  2  3  1  0
  3  4  1  0
  4  5  1  0
  5  6  1  0
  6  1  1  0
  6  7  1  0
  2  8  1  0
  4  9  1  0
  1 10  1  0
  3 11  1  0
  7 12  1  0
  9 13  1  0
 11 14  1  0
 14 15  1  0
 14 16  2  0
 13 17  1  0
 17 18  1  0
 18 19  1  0
 19 20  1  0
 20 21  1  0
 21 22  1  0
 22 23  1  0
 23 24  1  0
 24 25  1  0
 26 25  1  0
 26 27  1  0
 27 28  1  0
 28 29  1  0
 29 30  1  0
 30 31  2  0
 31 32  1  0
 32 27  1  0
 30 33  1  0
 33 34  2  0
 34 35  1  0
 35 36  2  0
 36 31  1  0
 29 37  2  0
 37 38  1  0
 38 39  2  0
 39 33  1  0
 32 40  2  0
 28 41  2  0
  1 42  1  0
  2 43  1  0
  3 44  1  0
  4 45  1  0
  6 46  1  0
  7 47  1  0
  7 48  1  0
  8 49  1  0
 10 50  1  0
 11 51  1  0
 12 52  1  0
 13 53  1  0
 13 54  1  0
 15 55  1  0
 15 56  1  0
 15 57  1  0
 17 58  1  0
 17 59  1  0
 18 60  1  0
 18 61  1  0
 19 62  1  0
 19 63  1  0
 20 64  1  0
 20 65  1  0
 21 66  1  0
 21 67  1  0
 22 68  1  0
 23 69  1  0
 23 70  1  0
 24 71  1  0
 24 72  1  0
 25 73  1  0
 25 74  1  0
 26 75  1  0
 26 76  1  0
 34 77  1  0
 35 78  1  0
 36 79  1  0
 37 80  1  0
 38 81  1  0
 39 82  1  0
M  END
> <Name>
15l Shen et al., 2018

> <Clean Energy>
7.09395027160645

> <Reference>
Shen et al., 2018

> <Forcefield>
MMFF

> <ForcefieldBase>
MMFF

> <ForcefieldFFML>
<?xml version="1.0" encoding="UTF-8"?>
<!DOCTYPE ffml SYSTEM "Ffml.dtd">
<ffml version="1.0">
<forcefield name="15l Shen et al., 2018-MMFF" derivedFrom="MMFF" base="MMFF">
<atomTypes>
<atomType
 name="C100"
 element="C"
 mass="12.011"
 annotation=""/>
<atomType
 name="O101"
 element="O"
 mass="16"
 annotation=""/>
<atomType
 name="S102"
 element="S"
 mass="32.066"
 annotation=""/>
<atomType
 name="N103"
 element="N"
 mass="14.007"
 annotation=""/>
<atomType
 name="H104"
 element="H"
 mass="1.008"
 annotation=""/>
</atomTypes>
<parameters>
</parameters>
</forcefield>
</ffml>

$$$$
13a Shen et al., 2018
  SciTegic07212313593D

 30 32  0  0  0  0            999 V2000
   21.6849  -22.5351   -5.2533 C   0  0
   21.0565  -21.6029   -4.5398 C   0  0
   21.3352  -20.1883   -4.7868 C   0  0
   22.2177  -19.8378   -5.7211 C   0  0
   22.9006  -20.8500   -6.4978 C   0  0
   22.6519  -22.1397   -6.2787 C   0  0
   20.6495  -19.1584   -4.0071 C   0  0
   20.9090  -17.8727   -4.2375 C   0  0
   21.8805  -17.4973   -5.2685 C   0  0
   22.5003  -18.4421   -5.9736 C   0  0
   23.4682  -18.0718   -7.0008 C   0  0
   24.1419  -19.0512   -7.7644 N   0  0
   23.8654  -20.4624   -7.5210 C   0  0
   25.1000  -18.5378   -8.7764 C   0  0
   25.8580  -19.5814   -9.6303 C   0  0
   26.7545  -18.8951  -10.5699 N   0  0
   24.4161  -21.3718   -8.1495 O   0  0
   23.7024  -16.8759   -7.2069 O   0  0
   21.4796  -23.5905   -5.0741 H   0  0
   20.3368  -21.8928   -3.7742 H   0  0
   23.1685  -22.9012   -6.8630 H   0  0
   19.9288  -19.4421   -3.2401 H   0  0
   20.3997  -17.1010   -3.6603 H   0  0
   22.0956  -16.4457   -5.4581 H   0  0
   24.5420  -17.8984   -9.4604 H   0  0
   25.8456  -17.9430   -8.2488 H   0  0
   26.4442  -20.2274   -8.9767 H   0  0
   25.1404  -20.1831  -10.1882 H   0  0
   27.4598  -18.3043  -10.0236 H   0  0
   26.1804  -18.2607  -11.2126 H   0  0
  1  2  2  0
  2  3  1  0
  3  4  2  0
  4  5  1  0
  5  6  2  0
  6  1  1  0
  3  7  1  0
  7  8  2  0
  8  9  1  0
  9 10  2  0
 10  4  1  0
 10 11  1  0
 11 12  1  0
 12 13  1  0
 13  5  1  0
 12 14  1  0
 14 15  1  0
 15 16  1  0
 13 17  2  0
 11 18  2  0
  1 19  1  0
  2 20  1  0
  6 21  1  0
  7 22  1  0
  8 23  1  0
  9 24  1  0
 14 25  1  0
 14 26  1  0
 15 27  1  0
 15 28  1  0
 16 29  1  0
 16 30  1  0
M  END
> <Name>
13a Shen et al., 2018

> <Clean Energy>
0.981883347034454

> <Reference>
Shen et al., 2018

> <Chemical Formula>
C14H12N2O2

> <Forcefield>
MMFF

> <ForcefieldBase>
MMFF

> <ForcefieldFFML>
<?xml version="1.0" encoding="UTF-8"?>
<!DOCTYPE ffml SYSTEM "Ffml.dtd">
<ffml version="1.0">
<forcefield name="13a Shen et al., 2018-MMFF" derivedFrom="MMFF" base="MMFF">
<atomTypes>
<atomType
 name="C100"
 element="C"
 mass="12.011"
 annotation=""/>
<atomType
 name="N101"
 element="N"
 mass="14.007"
 annotation=""/>
<atomType
 name="O102"
 element="O"
 mass="16"
 annotation=""/>
<atomType
 name="H103"
 element="H"
 mass="1.008"
 annotation=""/>
</atomTypes>
<parameters>
</parameters>
</forcefield>
</ffml>

$$$$
13b Shen et al., 2018
  SciTegic07212313593D

 33 35  0  0  0  0            999 V2000
   21.9222  -22.5637   -5.5102 C   0  0
   21.2962  -21.6287   -4.7986 C   0  0
   21.5772  -20.2148   -5.0494 C   0  0
   22.4614  -19.8680   -5.9833 C   0  0
   23.1398  -20.8834   -6.7571 C   0  0
   22.8892  -22.1720   -6.5351 C   0  0
   20.8945  -19.1823   -4.2714 C   0  0
   21.1562  -17.8976   -4.5050 C   0  0
   22.1290  -17.5257   -5.5369 C   0  0
   22.7466  -18.4731   -6.2406 C   0  0
   23.7171  -18.1079   -7.2700 C   0  0
   24.3875  -19.0943   -8.0305 N   0  0
   24.1035  -20.5046   -7.7789 C   0  0
   25.3502  -18.5950   -9.0478 C   0  0
   26.0912  -19.6639   -9.8849 C   0  0
   27.0450  -18.9993  -10.8870 C   0  0
   24.6475  -21.4227   -8.4005 O   0  0
   23.9548  -16.9132   -7.4800 O   0  0
   27.7287  -20.0464  -11.6618 N   0  0
   21.7145  -23.6184   -5.3294 H   0  0
   20.5768  -21.9155   -4.0316 H   0  0
   23.4051  -22.9355   -7.1175 H   0  0
   20.1741  -19.4630   -3.5031 H   0  0
   20.6479  -17.1237   -3.9298 H   0  0
   22.3467  -16.4749   -5.7280 H   0  0
   24.7992  -17.9574   -9.7391 H   0  0
   26.1028  -18.0025   -8.5276 H   0  0
   26.6644  -20.3074   -9.2175 H   0  0
   25.3606  -20.2626  -10.4289 H   0  0
   26.4779  -18.3572  -11.5609 H   0  0
   27.7818  -18.4022  -10.3496 H   0  0
   27.0040  -20.6325  -12.1873 H   0  0
   28.2836  -20.6766  -10.9986 H   0  0
  1  2  2  0
  2  3  1  0
  3  4  2  0
  4  5  1  0
  5  6  2  0
  6  1  1  0
  3  7  1  0
  7  8  2  0
  8  9  1  0
  9 10  2  0
 10  4  1  0
 10 11  1  0
 11 12  1  0
 12 13  1  0
 13  5  1  0
 12 14  1  0
 14 15  1  0
 15 16  1  0
 13 17  2  0
 11 18  2  0
 16 19  1  0
  1 20  1  0
  2 21  1  0
  6 22  1  0
  7 23  1  0
  8 24  1  0
  9 25  1  0
 14 26  1  0
 14 27  1  0
 15 28  1  0
 15 29  1  0
 16 30  1  0
 16 31  1  0
 19 32  1  0
 19 33  1  0
M  END
> <Name>
13b Shen et al., 2018

> <Clean Energy>
0.832952558994293

> <Reference>
Shen et al., 2018

> <Chemical Formula>
C15H14N2O2

> <Forcefield>
MMFF

> <ForcefieldBase>
MMFF

> <ForcefieldFFML>
<?xml version="1.0" encoding="UTF-8"?>
<!DOCTYPE ffml SYSTEM "Ffml.dtd">
<ffml version="1.0">
<forcefield name="13b Shen et al., 2018-MMFF" derivedFrom="MMFF" base="MMFF">
<atomTypes>
<atomType
 name="C100"
 element="C"
 mass="12.011"
 annotation=""/>
<atomType
 name="N101"
 element="N"
 mass="14.007"
 annotation=""/>
<atomType
 name="O102"
 element="O"
 mass="16"
 annotation=""/>
<atomType
 name="H103"
 element="H"
 mass="1.008"
 annotation=""/>
</atomTypes>
<parameters>
</parameters>
</forcefield>
</ffml>

$$$$
13c Shen et al., 2018
  SciTegic07212313593D

 36 38  0  0  0  0            999 V2000
   22.1891  -22.5664   -5.7970 C   0  0
   21.5642  -21.6288   -5.0880 C   0  0
   21.8495  -20.2159   -5.3403 C   0  0
   22.7316  -19.8726   -6.2775 C   0  0
   23.4100  -20.8907   -7.0469 C   0  0
   23.1560  -22.1785   -6.8233 C   0  0
   21.1673  -19.1806   -4.5660 C   0  0
   21.4322  -17.8969   -4.8014 C   0  0
   22.4048  -17.5287   -5.8348 C   0  0
   23.0218  -18.4786   -6.5356 C   0  0
   23.9921  -18.1167   -7.5667 C   0  0
   24.6609  -19.1055   -8.3250 N   0  0
   24.3732  -20.5163   -8.0699 C   0  0
   25.6253  -18.6106   -9.3445 C   0  0
   26.3580  -19.6892  -10.1732 C   0  0
   27.3197  -19.0543  -11.1847 C   0  0
   24.9144  -21.4382   -8.6884 O   0  0
   24.2319  -16.9229   -7.7788 O   0  0
   28.0098  -20.1871  -11.9697 C   0  0
   28.9413  -19.6191  -12.9513 N   0  0
   21.9807  -23.6204   -5.6130 H   0  0
   20.8424  -21.9125   -4.3221 H   0  0
   23.6689  -22.9439   -7.4056 H   0  0
   20.4445  -19.4583   -3.7988 H   0  0
   20.9265  -17.1210   -4.2267 H   0  0
   22.6229  -16.4786   -6.0293 H   0  0
   25.0769  -17.9739  -10.0389 H   0  0
   26.3807  -18.0189   -8.8274 H   0  0
   26.9248  -20.3312   -9.4988 H   0  0
   25.6210  -20.2863  -10.7102 H   0  0
   26.7640  -18.4153  -11.8711 H   0  0
   28.0679  -18.4604  -10.6598 H   0  0
   28.5593  -20.8241  -11.2767 H   0  0
   27.2554  -20.7791  -12.4880 H   0  0
   29.6835  -19.0381  -12.4448 H   0  0
   28.4039  -18.9939  -13.6335 H   0  0
  1  2  2  0
  2  3  1  0
  3  4  2  0
  4  5  1  0
  5  6  2  0
  6  1  1  0
  3  7  1  0
  7  8  2  0
  8  9  1  0
  9 10  2  0
 10  4  1  0
 10 11  1  0
 11 12  1  0
 12 13  1  0
 13  5  1  0
 12 14  1  0
 14 15  1  0
 15 16  1  0
 13 17  2  0
 11 18  2  0
 16 19  1  0
 19 20  1  0
  1 21  1  0
  2 22  1  0
  6 23  1  0
  7 24  1  0
  8 25  1  0
  9 26  1  0
 14 27  1  0
 14 28  1  0
 15 29  1  0
 15 30  1  0
 16 31  1  0
 16 32  1  0
 19 33  1  0
 19 34  1  0
 20 35  1  0
 20 36  1  0
M  END
> <Name>
13c Shen et al., 2018

> <Clean Energy>
0.754929065704346

> <Reference>
Shen et al., 2018

> <Chemical Formula>
C16H16N2O2

> <Forcefield>
MMFF

> <ForcefieldBase>
MMFF

> <ForcefieldFFML>
<?xml version="1.0" encoding="UTF-8"?>
<!DOCTYPE ffml SYSTEM "Ffml.dtd">
<ffml version="1.0">
<forcefield name="13c Shen et al., 2018-MMFF" derivedFrom="MMFF" base="MMFF">
<atomTypes>
<atomType
 name="C100"
 element="C"
 mass="12.011"
 annotation=""/>
<atomType
 name="N101"
 element="N"
 mass="14.007"
 annotation=""/>
<atomType
 name="O102"
 element="O"
 mass="16"
 annotation=""/>
<atomType
 name="H103"
 element="H"
 mass="1.008"
 annotation=""/>
</atomTypes>
<parameters>
</parameters>
</forcefield>
</ffml>

$$$$
16 Shen et al., 2018
  SciTegic07212313593D

100101  0  0  0  0            999 V2000
   15.6534  -29.2299    0.2792 C   0  0  1  0  0  0
   15.7765  -30.7229   -0.2329 C   0  0  1  0  0  0
   17.1163  -31.3206    0.3732 C   0  0  2  0  0  0
   18.3084  -30.4092   -0.1193 C   0  0  1  0  0  0
   18.1131  -29.0531    0.3235 O   0  0
   16.9077  -28.4720   -0.2445 C   0  0  2  0  0  0
   16.8515  -26.9889    0.2061 C   0  0
   14.6057  -31.4753    0.2602 O   0  0
   19.8569  -31.0184    0.6024 S   0  0
   14.4699  -28.5633   -0.3300 O   0  0
   17.2167  -32.7283   -0.1233 N   0  0
   15.7007  -26.3274   -0.3353 O   0  0
   21.3470  -30.1192    0.1655 C   0  0
   13.1484  -28.8034    0.1964 C   0  0
   12.1927  -28.2712   -0.3905 O   0  0
   12.8596  -29.5566    1.4768 C   0  0
   15.7192  -24.9850    0.0496 C   0  0
   14.2223  -32.7228   -0.3462 C   0  0
   14.8114  -33.2675   -1.6264 C   0  0
   13.2656  -33.3322    0.1588 O   0  0
   18.2126  -33.6385    0.0329 C   0  0
   18.0122  -35.0038   -0.5701 C   0  0
   19.2465  -33.4162    0.6288 O   0  0
   14.6166  -24.0625   -0.3850 C   0  0
   16.6451  -24.5524    0.7443 O   0  0
   22.4833  -31.1773    0.1841 C   0  0
   23.8608  -30.5141    0.1704 C   0  0
   24.9795  -31.5676   -0.0442 C   0  0
   26.5229  -30.7523    0.3890 S   0  0
   28.0241  -31.5314   -0.2465 C   0  0  2  0  0  0
   27.9988  -32.8867    0.1867 O   0  0
   29.1187  -33.6453   -0.3187 C   0  0  1  0  0  0
   30.4803  -33.0695    0.2842 C   0  0  2  0  0  0
   30.5521  -31.5659   -0.1973 C   0  0  1  0  0  0
   29.3149  -30.7906    0.2951 C   0  0  1  0  0  0
   29.5636  -29.3897   -0.2354 N   0  0
   31.6783  -33.7720   -0.2463 O   0  0
   31.7207  -30.8624    0.3446 O   0  0
   28.8405  -35.1411    0.0070 C   0  0
   28.8699  -28.2159   -0.2726 C   0  0
   29.4361  -27.2538   -0.8026 O   0  0
   27.5001  -27.9630    0.2730 C   0  0
   32.9772  -31.2400   -0.1735 C   0  0
   34.2188  -30.5953    0.3705 C   0  0
   33.0754  -32.0563   -1.0949 O   0  0
   27.6319  -35.5873   -0.6486 O   0  0
   26.4678  -35.5590    0.1578 C   0  0
   25.3928  -35.9087   -0.3416 O   0  0
   26.5037  -35.1632    1.6183 C   0  0
   32.1899  -34.9854    0.3488 C   0  0
   33.1542  -35.5331   -0.1989 O   0  0
   31.7048  -35.5527    1.6674 C   0  0
   15.6031  -29.1943    1.3675 H   0  0
   15.8104  -30.7475   -1.3221 H   0  0
   17.0677  -31.3129    1.4621 H   0  0
   18.3708  -30.4377   -1.2072 H   0  0
   16.9467  -28.5275   -1.3323 H   0  0
   16.8053  -26.9493    1.2944 H   0  0
   17.7505  -26.4781   -0.1387 H   0  0
   16.3747  -33.0706   -0.6880 H   0  0
   21.2506  -29.6799   -0.8274 H   0  0
   21.5457  -29.3327    0.8936 H   0  0
   11.7829  -29.5937    1.6421 H   0  0
   13.3379  -29.0480    2.3139 H   0  0
   13.2497  -30.5714    1.3978 H   0  0
   14.3464  -34.2247   -1.8624 H   0  0
   15.8854  -33.4067   -1.5023 H   0  0
   14.6280  -32.5648   -2.4392 H   0  0
   18.8859  -35.6231   -0.3670 H   0  0
   17.8770  -34.9094   -1.6476 H   0  0
   17.1285  -35.4686   -0.1328 H   0  0
   14.8017  -23.0632    0.0090 H   0  0
   13.6633  -24.4310   -0.0060 H   0  0
   14.5834  -24.0227   -1.4738 H   0  0
   22.3898  -31.7826    1.0858 H   0  0
   22.3880  -31.8158   -0.6942 H   0  0
   23.8976  -29.7846   -0.6386 H   0  0
   24.0235  -30.0097    1.1229 H   0  0
   24.8143  -32.4312    0.6002 H   0  0
   25.0012  -31.8894   -1.0854 H   0  0
   28.0169  -31.4983   -1.3359 H   0  0
   29.1487  -33.5308   -1.4022 H   0  0
   30.4633  -33.1184    1.3730 H   0  0
   30.5864  -31.5370   -1.2864 H   0  0
   29.3002  -30.7744    1.3848 H   0  0
   30.5253  -29.3011   -0.6960 H   0  0
   29.6795  -35.7450   -0.3387 H   0  0
   28.7276  -35.2581    1.0848 H   0  0
   27.2209  -26.9257    0.0886 H   0  0
   27.4947  -28.1549    1.3460 H   0  0
   26.7854  -28.6238   -0.2175 H   0  0
   35.0927  -31.0014   -0.1387 H   0  0
   34.2952  -30.7969    1.4390 H   0  0
   34.1713  -29.5186    0.2069 H   0  0
   25.4973  -35.2140    2.0338 H   0  0
   26.8833  -34.1456    1.7103 H   0  0
   27.1563  -35.8447    2.1640 H   0  0
   32.2492  -36.4702    1.8910 H   0  0
   30.6390  -35.7707    1.5997 H   0  0
   31.8769  -34.8261    2.4615 H   0  0
  1  2  1  0
  2  3  1  0
  3  4  1  0
  4  5  1  0
  5  6  1  0
  6  1  1  0
  6  7  1  0
  2  8  1  0
  4  9  1  0
  1 10  1  0
  3 11  1  0
  7 12  1  0
  9 13  1  0
 10 14  1  0
 14 15  2  0
 14 16  1  0
 12 17  1  0
  8 18  1  0
 18 19  1  0
 18 20  2  0
 11 21  1  0
 21 22  1  0
 21 23  2  0
 17 24  1  0
 17 25  2  0
 13 26  1  0
 26 27  1  0
 27 28  1  0
 28 29  1  0
 30 29  1  0
 30 31  1  0
 31 32  1  0
 32 33  1  0
 33 34  1  0
 34 35  1  0
 35 30  1  0
 35 36  1  0
 33 37  1  0
 34 38  1  0
 32 39  1  0
 36 40  1  0
 40 41  2  0
 40 42  1  0
 38 43  1  0
 43 44  1  0
 43 45  2  0
 39 46  1  0
 46 47  1  0
 47 48  2  0
 47 49  1  0
 37 50  1  0
 50 51  2  0
 50 52  1  0
  1 53  1  0
  2 54  1  0
  3 55  1  0
  4 56  1  0
  6 57  1  0
  7 58  1  0
  7 59  1  0
 11 60  1  0
 13 61  1  0
 13 62  1  0
 16 63  1  0
 16 64  1  0
 16 65  1  0
 19 66  1  0
 19 67  1  0
 19 68  1  0
 22 69  1  0
 22 70  1  0
 22 71  1  0
 24 72  1  0
 24 73  1  0
 24 74  1  0
 26 75  1  0
 26 76  1  0
 27 77  1  0
 27 78  1  0
 28 79  1  0
 28 80  1  0
 30 81  1  0
 32 82  1  0
 33 83  1  0
 34 84  1  0
 35 85  1  0
 36 86  1  0
 39 87  1  0
 39 88  1  0
 42 89  1  0
 42 90  1  0
 42 91  1  0
 44 92  1  0
 44 93  1  0
 44 94  1  0
 49 95  1  0
 49 96  1  0
 49 97  1  0
 52 98  1  0
 52 99  1  0
 52100  1  0
M  END
> <Name>
16 Shen et al., 2018

> <Clean Energy>
61.1425323486328

> <Reference>
Shen et al., 2018

> <Forcefield>
MMFF

> <ForcefieldBase>
MMFF

> <ForcefieldFFML>
<?xml version="1.0" encoding="UTF-8"?>
<!DOCTYPE ffml SYSTEM "Ffml.dtd">
<ffml version="1.0">
<forcefield name="16 Shen et al., 2018-MMFF" derivedFrom="MMFF" base="MMFF">
<atomTypes>
<atomType
 name="C100"
 element="C"
 mass="12.011"
 annotation=""/>
<atomType
 name="O101"
 element="O"
 mass="16"
 annotation=""/>
<atomType
 name="S102"
 element="S"
 mass="32.066"
 annotation=""/>
<atomType
 name="N103"
 element="N"
 mass="14.007"
 annotation=""/>
<atomType
 name="H104"
 element="H"
 mass="1.008"
 annotation=""/>
</atomTypes>
<parameters>
</parameters>
</forcefield>
</ffml>

$$$$
17 Shen et al., 2018
  SciTegic07212313593D

 70 71  0  0  0  0            999 V2000
   15.9812  -29.0433    0.3316 C   0  0  1  0  0  0
   16.0507  -30.4324   -0.2842 C   0  0  1  0  0  0
   17.3091  -31.1424    0.1622 C   0  0  2  0  0  0
   18.5405  -30.2707   -0.2032 C   0  0  1  0  0  0
   18.4362  -28.9655    0.4009 O   0  0
   17.2563  -28.2672   -0.0679 C   0  0  2  0  0  0
   17.2189  -26.8479    0.5279 C   0  0
   14.8993  -31.1930    0.0666 O   0  0
   20.0280  -31.1209    0.3601 S   0  0
   14.8093  -28.3785   -0.1244 O   0  0
   17.3704  -32.4421   -0.4770 N   0  0
   16.0779  -26.1365    0.0363 O   0  0
   21.5496  -30.2237    0.0697 C   0  0
   18.0516  -33.4868   -0.0481 C   0  0
   18.0507  -34.7700   -0.8065 C   0  0
   18.7327  -33.4050    1.0142 O   0  0
   22.6851  -31.2572    0.2163 C   0  0
   24.0336  -30.5548    0.2561 C   0  0
   25.1839  -31.5781    0.1661 C   0  0
   26.6736  -30.6460    0.5018 S   0  0
   28.1868  -31.3906   -0.1208 C   0  0  2  0  0  0
   28.3093  -32.7161    0.4445 O   0  0
   29.4833  -33.3885   -0.0807 C   0  0  1  0  0  0
   30.7500  -32.6337    0.3402 C   0  0  2  0  0  0
   30.6793  -31.2274   -0.2360 C   0  0  1  0  0  0
   29.4371  -30.5008    0.2756 C   0  0  1  0  0  0
   29.5192  -29.1587   -0.3920 N   0  0
   31.9047  -33.2976   -0.1802 O   0  0
   31.8473  -30.4935    0.1359 O   0  0
   29.5492  -34.8238    0.4613 C   0  0
   28.7977  -28.0134   -0.3050 C   0  0
   29.1707  -27.0638   -1.0030 O   0  0
   27.6031  -27.7915    0.5729 C   0  0
   28.3841  -35.5390    0.0451 O   0  0
   15.9423  -29.1341    1.4171 H   0  0
   16.0789  -30.3285   -1.3689 H   0  0
   17.2770  -31.2782    1.2432 H   0  0
   18.5856  -30.1574   -1.2864 H   0  0
   17.2985  -28.1929   -1.1546 H   0  0
   17.1610  -26.9149    1.6143 H   0  0
   18.1259  -26.3142    0.2441 H   0  0
   14.8456  -31.2861    1.1111 H   0  0
   14.8382  -28.2953   -1.1707 H   0  0
   16.8110  -32.5653   -1.3808 H   0  0
   16.1313  -26.0687   -1.0101 H   0  0
   21.5525  -29.7974   -0.9335 H   0  0
   21.6656  -29.4267    0.8041 H   0  0
   18.6704  -35.5004   -0.2866 H   0  0
   18.4500  -34.6018   -1.8067 H   0  0
   17.0308  -35.1474   -0.8817 H   0  0
   22.5441  -31.8180    1.1403 H   0  0
   22.6606  -31.9414   -0.6319 H   0  0
   24.1024  -29.8646   -0.5847 H   0  0
   24.1206  -30.0001    1.1903 H   0  0
   25.0520  -32.3665    0.9072 H   0  0
   25.2257  -32.0185   -0.8301 H   0  0
   28.1296  -31.4668   -1.2066 H   0  0
   29.4256  -33.4167   -1.1688 H   0  0
   30.8087  -32.5860    1.4276 H   0  0
   30.6310  -31.2910   -1.3231 H   0  0
   29.4883  -30.3857    1.3583 H   0  0
   30.3259  -29.0904   -1.0917 H   0  0
   31.9441  -34.2777    0.1946 H   0  0
   31.9073  -30.4372    1.1827 H   0  0
   30.4389  -35.3193    0.0726 H   0  0
   29.5924  -34.8002    1.5502 H   0  0
   27.2313  -26.7767    0.4317 H   0  0
   27.8870  -27.9319    1.6159 H   0  0
   26.8213  -28.5041    0.3104 H   0  0
   27.5272  -35.0610    0.4191 H   0  0
  1  2  1  0
  2  3  1  0
  3  4  1  0
  4  5  1  0
  5  6  1  0
  6  1  1  0
  6  7  1  0
  2  8  1  0
  4  9  1  0
  1 10  1  0
  3 11  1  0
  7 12  1  0
  9 13  1  0
 11 14  1  0
 14 15  1  0
 14 16  2  0
 13 17  1  0
 17 18  1  0
 18 19  1  0
 19 20  1  0
 21 20  1  0
 21 22  1  0
 22 23  1  0
 23 24  1  0
 24 25  1  0
 25 26  1  0
 26 21  1  0
 26 27  1  0
 24 28  1  0
 25 29  1  0
 23 30  1  0
 27 31  1  0
 31 32  2  0
 31 33  1  0
 30 34  1  0
  1 35  1  0
  2 36  1  0
  3 37  1  0
  4 38  1  0
  6 39  1  0
  7 40  1  0
  7 41  1  0
  8 42  1  0
 10 43  1  0
 11 44  1  0
 12 45  1  0
 13 46  1  0
 13 47  1  0
 15 48  1  0
 15 49  1  0
 15 50  1  0
 17 51  1  0
 17 52  1  0
 18 53  1  0
 18 54  1  0
 19 55  1  0
 19 56  1  0
 21 57  1  0
 23 58  1  0
 24 59  1  0
 25 60  1  0
 26 61  1  0
 27 62  1  0
 28 63  1  0
 29 64  1  0
 30 65  1  0
 30 66  1  0
 33 67  1  0
 33 68  1  0
 33 69  1  0
 34 70  1  0
M  END
> <Name>
17 Shen et al., 2018

> <Clean Energy>
16.5812206268311

> <Reference>
Shen et al., 2018

> <Forcefield>
MMFF

> <ForcefieldBase>
MMFF

> <ForcefieldFFML>
<?xml version="1.0" encoding="UTF-8"?>
<!DOCTYPE ffml SYSTEM "Ffml.dtd">
<ffml version="1.0">
<forcefield name="17 Shen et al., 2018-MMFF" derivedFrom="MMFF" base="MMFF">
<atomTypes>
<atomType
 name="C100"
 element="C"
 mass="12.011"
 annotation=""/>
<atomType
 name="O101"
 element="O"
 mass="16"
 annotation=""/>
<atomType
 name="S102"
 element="S"
 mass="32.066"
 annotation=""/>
<atomType
 name="N103"
 element="N"
 mass="14.007"
 annotation=""/>
<atomType
 name="H104"
 element="H"
 mass="1.008"
 annotation=""/>
</atomTypes>
<parameters>
</parameters>
</forcefield>
</ffml>

$$$$
12 Shen et al., 2018
  SciTegic07212313593D

 21 23  0  0  0  0            999 V2000
   22.2827  -16.0954   -0.0001 C   0  0
   21.5897  -17.2326   -0.0001 C   0  0
   22.2996  -18.5109    0.0000 C   0  0
   23.6311  -18.5299    0.0000 C   0  0
   24.3810  -17.3074    0.0000 C   0  0
   23.7480  -16.1353    0.0000 C   0  0
   21.5536  -19.7684    0.0000 C   0  0
   22.2139  -20.9249    0.0001 C   0  0
   23.6796  -20.9268    0.0001 C   0  0
   24.3458  -19.7732    0.0001 C   0  0
   25.8069  -19.7706    0.0002 C   0  0
   26.5706  -18.5718    0.0001 O   0  0
   25.8414  -17.3516    0.0001 C   0  0
   26.4666  -16.2857    0.0000 O   0  0
   26.4015  -20.8539    0.0002 O   0  0
   21.7619  -15.1379   -0.0001 H   0  0
   20.5000  -17.2106   -0.0001 H   0  0
   24.3190  -15.2068   -0.0001 H   0  0
   20.4636  -19.7593    0.0000 H   0  0
   21.6660  -21.8672    0.0001 H   0  0
   24.2240  -21.8712    0.0002 H   0  0
  1  2  2  0
  2  3  1  0
  3  4  2  0
  4  5  1  0
  5  6  2  0
  6  1  1  0
  3  7  1  0
  7  8  2  0
  8  9  1  0
  9 10  2  0
 10  4  1  0
 10 11  1  0
 11 12  1  0
 12 13  1  0
 13  5  1  0
 13 14  2  0
 11 15  2  0
  1 16  1  0
  2 17  1  0
  6 18  1  0
  7 19  1  0
  8 20  1  0
  9 21  1  0
M  END
> <Name>
12 Shen et al., 2018

> <Clean Energy>
-1.23815357685089

> <Reference>
Shen et al., 2018

> <Forcefield>
MMFF

> <ForcefieldBase>
MMFF

> <ForcefieldFFML>
<?xml version="1.0" encoding="UTF-8"?>
<!DOCTYPE ffml SYSTEM "Ffml.dtd">
<ffml version="1.0">
<forcefield name="12 Shen et al., 2018-MMFF" derivedFrom="MMFF" base="MMFF">
<atomTypes>
<atomType
 name="C100"
 element="C"
 mass="12.011"
 annotation=""/>
<atomType
 name="O101"
 element="O"
 mass="16"
 annotation=""/>
<atomType
 name="H102"
 element="H"
 mass="1.008"
 annotation=""/>
</atomTypes>
<parameters>
</parameters>
</forcefield>
</ffml>

$$$$
18 Shen et al., 2018
  SciTegic07212313593D

 22 24  0  0  0  0            999 V2000
   22.2873  -16.0925   -0.0001 C   0  0
   21.5906  -17.2293   -0.0001 C   0  0
   22.2975  -18.5108    0.0000 C   0  0
   23.6268  -18.5298    0.0000 C   0  0
   24.3818  -17.3082    0.0000 C   0  0
   23.7555  -16.1331    0.0000 C   0  0
   21.5543  -19.7717    0.0000 C   0  0
   22.2183  -20.9279    0.0001 C   0  0
   23.6871  -20.9292    0.0001 C   0  0
   24.3467  -19.7724    0.0001 C   0  0
   25.8080  -19.7392    0.0001 C   0  0
   26.4683  -18.5703    0.0001 N   0  0
   25.8416  -17.3831    0.0001 C   0  0
   26.5059  -16.3411    0.0000 O   0  0
   26.4423  -20.7997    0.0002 O   0  0
   21.7679  -15.1342   -0.0001 H   0  0
   20.5009  -17.2043   -0.0001 H   0  0
   24.3292  -15.2063   -0.0001 H   0  0
   20.4644  -19.7656    0.0000 H   0  0
   21.6718  -21.8710    0.0001 H   0  0
   24.2342  -21.8719    0.0002 H   0  0
   27.5382  -18.5856    0.0002 H   0  0
  1  2  2  0
  2  3  1  0
  3  4  2  0
  4  5  1  0
  5  6  2  0
  6  1  1  0
  3  7  1  0
  7  8  2  0
  8  9  1  0
  9 10  2  0
 10  4  1  0
 10 11  1  0
 11 12  1  0
 12 13  1  0
 13  5  1  0
 13 14  2  0
 11 15  2  0
  1 16  1  0
  2 17  1  0
  6 18  1  0
  7 19  1  0
  8 20  1  0
  9 21  1  0
 12 22  1  0
M  END
> <Name>
18 Shen et al., 2018

> <Clean Energy>
-2.4083559513092

> <Reference>
Shen et al., 2018

> <Forcefield>
MMFF

> <ForcefieldBase>
MMFF

> <ForcefieldFFML>
<?xml version="1.0" encoding="UTF-8"?>
<!DOCTYPE ffml SYSTEM "Ffml.dtd">
<ffml version="1.0">
<forcefield name="18 Shen et al., 2018-MMFF" derivedFrom="MMFF" base="MMFF">
<atomTypes>
<atomType
 name="C100"
 element="C"
 mass="12.011"
 annotation=""/>
<atomType
 name="N101"
 element="N"
 mass="14.007"
 annotation=""/>
<atomType
 name="O102"
 element="O"
 mass="16"
 annotation=""/>
<atomType
 name="H103"
 element="H"
 mass="1.008"
 annotation=""/>
</atomTypes>
<parameters>
</parameters>
</forcefield>
</ffml>

$$$$
19a Shen et al., 2018
  SciTegic07212313593D

 28 30  0  0  0  0            999 V2000
   23.0653  -15.9869   -0.0002 C   0  0
   22.4073  -17.1444    0.0001 C   0  0
   23.1520  -18.4036   -0.0003 C   0  0
   24.4841  -18.3883    0.0005 C   0  0
   25.1998  -17.1310   -0.0003 C   0  0
   24.5288  -15.9809    0.0001 C   0  0
   22.4364  -19.6788    0.0002 C   0  0
   23.1214  -20.8209    0.0000 C   0  0
   24.5870  -20.7937    0.0003 C   0  0
   25.2304  -19.6273   -0.0001 C   0  0
   26.6904  -19.5957    0.0001 C   0  0
   27.3998  -18.3726    0.0000 N   0  0
   26.6575  -17.1167    0.0000 C   0  0
   27.2084  -16.0114   -0.0002 O   0  0
   27.3176  -20.6607    0.0001 O   0  0
   28.8823  -18.4797   -0.0001 C   0  0
   29.6866  -17.1570    0.0016 C   0  0
   31.5876  -17.5379    0.0009 Br  0  0
   22.5153  -15.0459   -0.0006 H   0  0
   21.3173  -17.1538    0.0007 H   0  0
   25.0697  -15.0346    0.0005 H   0  0
   21.3466  -19.6946    0.0008 H   0  0
   22.5931  -21.7743   -0.0003 H   0  0
   25.1499  -21.7271    0.0008 H   0  0
   29.1707  -19.0399    0.8893 H   0  0
   29.1707  -19.0377   -0.8910 H   0  0
   29.4338  -16.5797   -0.8878 H   0  0
   29.4340  -16.5821    0.8925 H   0  0
  1  2  2  0
  2  3  1  0
  3  4  2  0
  4  5  1  0
  5  6  2  0
  6  1  1  0
  3  7  1  0
  7  8  2  0
  8  9  1  0
  9 10  2  0
 10  4  1  0
 10 11  1  0
 11 12  1  0
 12 13  1  0
 13  5  1  0
 13 14  2  0
 11 15  2  0
 12 16  1  0
 16 17  1  0
 17 18  1  0
  1 19  1  0
  2 20  1  0
  6 21  1  0
  7 22  1  0
  8 23  1  0
  9 24  1  0
 16 25  1  0
 16 26  1  0
 17 27  1  0
 17 28  1  0
M  END
> <Name>
19a Shen et al., 2018

> <Clean Energy>
0.998082995414734

> <Reference>
Shen et al., 2018

> <Forcefield>
MMFF

> <ForcefieldBase>
MMFF

> <ForcefieldFFML>
<?xml version="1.0" encoding="UTF-8"?>
<!DOCTYPE ffml SYSTEM "Ffml.dtd">
<ffml version="1.0">
<forcefield name="19a Shen et al., 2018-MMFF" derivedFrom="MMFF" base="MMFF">
<atomTypes>
<atomType
 name="C100"
 element="C"
 mass="12.011"
 annotation=""/>
<atomType
 name="N101"
 element="N"
 mass="14.007"
 annotation=""/>
<atomType
 name="O102"
 element="O"
 mass="16"
 annotation=""/>
<atomType
 name="Br103"
 element="Br"
 mass="79.904"
 annotation=""/>
<atomType
 name="H104"
 element="H"
 mass="1.008"
 annotation=""/>
</atomTypes>
<parameters>
</parameters>
</forcefield>
</ffml>

$$$$
19b Shen et al., 2018
  SciTegic07212313593D

 31 33  0  0  0  0            999 V2000
   23.4417  -15.8457   -0.0003 C   0  0
   22.7699  -16.9951    0.0001 C   0  0
   23.4996  -18.2634   -0.0005 C   0  0
   24.8316  -18.2642    0.0007 C   0  0
   25.5611  -17.0160   -0.0002 C   0  0
   24.9044  -15.8578    0.0001 C   0  0
   22.7690  -19.5297    0.0002 C   0  0
   23.4402  -20.6799   -0.0001 C   0  0
   24.9061  -20.6706    0.0003 C   0  0
   25.5636  -19.5123   -0.0001 C   0  0
   27.0243  -19.4979    0.0003 C   0  0
   27.7469  -18.2826    0.0002 N   0  0
   27.0162  -17.0175    0.0002 C   0  0
   27.5753  -15.9163    0.0001 O   0  0
   27.6393  -20.5700    0.0003 O   0  0
   29.2288  -18.4025    0.0003 C   0  0
   30.0298  -17.0804   -0.0001 C   0  0
   31.5388  -17.3597    0.0001 C   0  0
   32.4855  -15.6656   -0.0004 Br  0  0
   22.9032  -14.8980   -0.0008 H   0  0
   21.6799  -16.9914    0.0007 H   0  0
   25.4570  -14.9183    0.0007 H   0  0
   21.6790  -19.5324    0.0008 H   0  0
   22.9004  -21.6268   -0.0005 H   0  0
   25.4576  -21.6109    0.0010 H   0  0
   29.5152  -18.9623    0.8907 H   0  0
   29.5153  -18.9630   -0.8896 H   0  0
   29.7724  -16.5067   -0.8904 H   0  0
   29.7723  -16.5060    0.8898 H   0  0
   31.8061  -17.9288    0.8905 H   0  0
   31.8062  -17.9294   -0.8898 H   0  0
  1  2  2  0
  2  3  1  0
  3  4  2  0
  4  5  1  0
  5  6  2  0
  6  1  1  0
  3  7  1  0
  7  8  2  0
  8  9  1  0
  9 10  2  0
 10  4  1  0
 10 11  1  0
 11 12  1  0
 12 13  1  0
 13  5  1  0
 13 14  2  0
 11 15  2  0
 12 16  1  0
 16 17  1  0
 17 18  1  0
 18 19  1  0
  1 20  1  0
  2 21  1  0
  6 22  1  0
  7 23  1  0
  8 24  1  0
  9 25  1  0
 16 26  1  0
 16 27  1  0
 17 28  1  0
 17 29  1  0
 18 30  1  0
 18 31  1  0
M  END
> <Name>
19b Shen et al., 2018

> <Clean Energy>
0.834000587463379

> <Reference>
Shen et al., 2018

> <Forcefield>
MMFF

> <ForcefieldBase>
MMFF

> <ForcefieldFFML>
<?xml version="1.0" encoding="UTF-8"?>
<!DOCTYPE ffml SYSTEM "Ffml.dtd">
<ffml version="1.0">
<forcefield name="19b Shen et al., 2018-MMFF" derivedFrom="MMFF" base="MMFF">
<atomTypes>
<atomType
 name="C100"
 element="C"
 mass="12.011"
 annotation=""/>
<atomType
 name="N101"
 element="N"
 mass="14.007"
 annotation=""/>
<atomType
 name="O102"
 element="O"
 mass="16"
 annotation=""/>
<atomType
 name="Br103"
 element="Br"
 mass="79.904"
 annotation=""/>
<atomType
 name="H104"
 element="H"
 mass="1.008"
 annotation=""/>
</atomTypes>
<parameters>
</parameters>
</forcefield>
</ffml>

$$$$
19c Shen et al., 2018
  SciTegic07212313593D

 34 36  0  0  0  0            999 V2000
   23.7852  -15.7549   -0.0001 C   0  0
   23.1295  -16.9136    0.0000 C   0  0
   23.8769  -18.1717   -0.0001 C   0  0
   25.2088  -18.1542    0.0002 C   0  0
   25.9199  -16.8963    0.0000 C   0  0
   25.2473  -15.7473    0.0000 C   0  0
   23.1640  -19.4477    0.0001 C   0  0
   23.8511  -20.5885    0.0001 C   0  0
   25.3171  -20.5593    0.0002 C   0  0
   25.9587  -19.3920    0.0001 C   0  0
   27.4203  -19.3572    0.0002 C   0  0
   28.1253  -18.1308    0.0002 N   0  0
   27.3732  -16.8758    0.0001 C   0  0
   27.9123  -15.7647    0.0001 O   0  0
   28.0503  -20.4205    0.0003 O   0  0
   29.6114  -18.2252    0.0002 C   0  0
   30.3772  -16.8833   -0.0001 C   0  0
   31.8950  -17.0996   -0.0002 C   0  0
   32.5711  -15.7139   -0.0005 C   0  0
   34.4985  -15.9112   -0.0008 Br  0  0
   23.2337  -14.8148   -0.0002 H   0  0
   22.0396  -16.9251    0.0000 H   0  0
   25.7870  -14.8003    0.0001 H   0  0
   22.0742  -19.4655    0.0001 H   0  0
   23.3244  -21.5428    0.0000 H   0  0
   25.8813  -21.4919    0.0003 H   0  0
   29.9099  -18.7788    0.8905 H   0  0
   29.9100  -18.7791   -0.8898 H   0  0
   30.1005  -16.3184   -0.8903 H   0  0
   30.1006  -16.3181    0.8900 H   0  0
   32.1899  -17.6552    0.8900 H   0  0
   32.1897  -17.6555   -0.8903 H   0  0
   32.2652  -15.1642   -0.8907 H   0  0
   32.2655  -15.1640    0.8896 H   0  0
  1  2  2  0
  2  3  1  0
  3  4  2  0
  4  5  1  0
  5  6  2  0
  6  1  1  0
  3  7  1  0
  7  8  2  0
  8  9  1  0
  9 10  2  0
 10  4  1  0
 10 11  1  0
 11 12  1  0
 12 13  1  0
 13  5  1  0
 13 14  2  0
 11 15  2  0
 12 16  1  0
 16 17  1  0
 17 18  1  0
 18 19  1  0
 19 20  1  0
  1 21  1  0
  2 22  1  0
  6 23  1  0
  7 24  1  0
  8 25  1  0
  9 26  1  0
 16 27  1  0
 16 28  1  0
 17 29  1  0
 17 30  1  0
 18 31  1  0
 18 32  1  0
 19 33  1  0
 19 34  1  0
M  END
> <Name>
19c Shen et al., 2018

> <Clean Energy>
0.826967120170593

> <Reference>
Shen et al., 2018

> <Forcefield>
MMFF

> <ForcefieldBase>
MMFF

> <ForcefieldFFML>
<?xml version="1.0" encoding="UTF-8"?>
<!DOCTYPE ffml SYSTEM "Ffml.dtd">
<ffml version="1.0">
<forcefield name="19c Shen et al., 2018-MMFF" derivedFrom="MMFF" base="MMFF">
<atomTypes>
<atomType
 name="C100"
 element="C"
 mass="12.011"
 annotation=""/>
<atomType
 name="N101"
 element="N"
 mass="14.007"
 annotation=""/>
<atomType
 name="O102"
 element="O"
 mass="16"
 annotation=""/>
<atomType
 name="Br103"
 element="Br"
 mass="79.904"
 annotation=""/>
<atomType
 name="H104"
 element="H"
 mass="1.008"
 annotation=""/>
</atomTypes>
<parameters>
</parameters>
</forcefield>
</ffml>

$$$$
19d Shen et al., 2018
  SciTegic07212313593D

 37 39  0  0  0  0            999 V2000
   24.1694  -15.5867   -0.0001 C   0  0
   23.5144  -16.7459    0.0000 C   0  0
   24.2626  -18.0032   -0.0001 C   0  0
   25.5945  -17.9846    0.0002 C   0  0
   26.3062  -16.7259    0.0000 C   0  0
   25.6325  -15.5774    0.0000 C   0  0
   23.5506  -19.2802    0.0001 C   0  0
   24.2385  -20.4205    0.0001 C   0  0
   25.7039  -20.3897    0.0002 C   0  0
   26.3443  -19.2220    0.0001 C   0  0
   27.8042  -19.1871    0.0001 C   0  0
   28.5100  -17.9629    0.0001 N   0  0
   27.7623  -16.7072    0.0001 C   0  0
   28.3070  -15.5987    0.0000 O   0  0
   28.4340  -20.2505    0.0002 O   0  0
   29.9935  -18.0647    0.0000 C   0  0
   30.7768  -16.7338    0.0001 C   0  0
   32.2896  -16.9909   -0.0001 C   0  0
   33.0106  -15.6305   -0.0001 C   0  0
   34.5332  -15.8411   -0.0004 C   0  0
   35.4150  -14.1128   -0.0004 Br  0  0
   23.6171  -14.6471   -0.0002 H   0  0
   22.4245  -16.7581    0.0002 H   0  0
   26.1713  -14.6298    0.0001 H   0  0
   22.4607  -19.2988    0.0003 H   0  0
   23.7125  -21.3752    0.0000 H   0  0
   26.2690  -21.3218    0.0004 H   0  0
   30.2869  -18.6212    0.8902 H   0  0
   30.2869  -18.6211   -0.8901 H   0  0
   30.5115  -16.1633   -0.8900 H   0  0
   30.5117  -16.1635    0.8903 H   0  0
   32.5676  -17.5553    0.8900 H   0  0
   32.5674  -17.5552   -0.8903 H   0  0
   32.7239  -15.0704   -0.8901 H   0  0
   32.7242  -15.0706    0.8901 H   0  0
   34.8243  -16.3990    0.8897 H   0  0
   34.8240  -16.3988   -0.8906 H   0  0
  1  2  2  0
  2  3  1  0
  3  4  2  0
  4  5  1  0
  5  6  2  0
  6  1  1  0
  3  7  1  0
  7  8  2  0
  8  9  1  0
  9 10  2  0
 10  4  1  0
 10 11  1  0
 11 12  1  0
 12 13  1  0
 13  5  1  0
 13 14  2  0
 11 15  2  0
 12 16  1  0
 16 17  1  0
 17 18  1  0
 18 19  1  0
 19 20  1  0
 20 21  1  0
  1 22  1  0
  2 23  1  0
  6 24  1  0
  7 25  1  0
  8 26  1  0
  9 27  1  0
 16 28  1  0
 16 29  1  0
 17 30  1  0
 17 31  1  0
 18 32  1  0
 18 33  1  0
 19 34  1  0
 19 35  1  0
 20 36  1  0
 20 37  1  0
M  END
> <Name>
19d Shen et al., 2018

> <Clean Energy>
0.551062345504761

> <Reference>
Shen et al., 2018

> <Forcefield>
MMFF

> <ForcefieldBase>
MMFF

> <ForcefieldFFML>
<?xml version="1.0" encoding="UTF-8"?>
<!DOCTYPE ffml SYSTEM "Ffml.dtd">
<ffml version="1.0">
<forcefield name="19d Shen et al., 2018-MMFF" derivedFrom="MMFF" base="MMFF">
<atomTypes>
<atomType
 name="C100"
 element="C"
 mass="12.011"
 annotation=""/>
<atomType
 name="N101"
 element="N"
 mass="14.007"
 annotation=""/>
<atomType
 name="O102"
 element="O"
 mass="16"
 annotation=""/>
<atomType
 name="Br103"
 element="Br"
 mass="79.904"
 annotation=""/>
<atomType
 name="H104"
 element="H"
 mass="1.008"
 annotation=""/>
</atomTypes>
<parameters>
</parameters>
</forcefield>
</ffml>

$$$$
19e Shen et al., 2018
  SciTegic07212313593D

 40 42  0  0  0  0            999 V2000
   24.5732  -15.4534   -0.0001 C   0  0
   23.9252  -16.6164    0.0000 C   0  0
   24.6810  -17.8694   -0.0001 C   0  0
   26.0128  -17.8429    0.0002 C   0  0
   26.7162  -16.5801   -0.0001 C   0  0
   26.0357  -15.4356    0.0000 C   0  0
   23.9765  -19.1503    0.0001 C   0  0
   24.6712  -20.2865    0.0001 C   0  0
   26.1368  -20.2473    0.0002 C   0  0
   26.7706  -19.0757    0.0000 C   0  0
   28.2315  -19.0316    0.0002 C   0  0
   28.9293  -17.8016    0.0001 N   0  0
   28.1709  -16.5511    0.0001 C   0  0
   28.7054  -15.4377    0.0000 O   0  0
   28.8681  -20.0910    0.0002 O   0  0
   30.4155  -17.8897    0.0001 C   0  0
   31.1801  -16.5475    0.0001 C   0  0
   32.6981  -16.7688   -0.0001 C   0  0
   33.3771  -15.3867   -0.0001 C   0  0
   34.9053  -15.5425   -0.0004 C   0  0
   35.5503  -14.1438   -0.0004 C   0  0
   37.4814  -14.3166   -0.0008 Br  0  0
   24.0153  -14.5170   -0.0003 H   0  0
   22.8354  -16.6352    0.0002 H   0  0
   26.5689  -14.4849    0.0002 H   0  0
   22.8868  -19.1753    0.0003 H   0  0
   24.1509  -21.2443    0.0000 H   0  0
   26.7073  -21.1760    0.0004 H   0  0
   30.7154  -18.4428    0.8902 H   0  0
   30.7154  -18.4427   -0.8901 H   0  0
   30.9040  -15.9821   -0.8900 H   0  0
   30.9042  -15.9822    0.8903 H   0  0
   32.9914  -17.3255    0.8900 H   0  0
   32.9912  -17.3254   -0.8903 H   0  0
   33.0719  -14.8365   -0.8902 H   0  0
   33.0722  -14.8366    0.8901 H   0  0
   35.2172  -16.0890    0.8897 H   0  0
   35.2169  -16.0889   -0.8906 H   0  0
   35.2350  -13.5993   -0.8904 H   0  0
   35.2353  -13.5994    0.8898 H   0  0
  1  2  2  0
  2  3  1  0
  3  4  2  0
  4  5  1  0
  5  6  2  0
  6  1  1  0
  3  7  1  0
  7  8  2  0
  8  9  1  0
  9 10  2  0
 10  4  1  0
 10 11  1  0
 11 12  1  0
 12 13  1  0
 13  5  1  0
 13 14  2  0
 11 15  2  0
 12 16  1  0
 16 17  1  0
 17 18  1  0
 18 19  1  0
 19 20  1  0
 20 21  1  0
 21 22  1  0
  1 23  1  0
  2 24  1  0
  6 25  1  0
  7 26  1  0
  8 27  1  0
  9 28  1  0
 16 29  1  0
 16 30  1  0
 17 31  1  0
 17 32  1  0
 18 33  1  0
 18 34  1  0
 19 35  1  0
 19 36  1  0
 20 37  1  0
 20 38  1  0
 21 39  1  0
 21 40  1  0
M  END
> <Name>
19e Shen et al., 2018

> <Clean Energy>
0.513939678668976

> <Reference>
Shen et al., 2018

> <Forcefield>
MMFF

> <ForcefieldBase>
MMFF

> <ForcefieldFFML>
<?xml version="1.0" encoding="UTF-8"?>
<!DOCTYPE ffml SYSTEM "Ffml.dtd">
<ffml version="1.0">
<forcefield name="19e Shen et al., 2018-MMFF" derivedFrom="MMFF" base="MMFF">
<atomTypes>
<atomType
 name="C100"
 element="C"
 mass="12.011"
 annotation=""/>
<atomType
 name="N101"
 element="N"
 mass="14.007"
 annotation=""/>
<atomType
 name="O102"
 element="O"
 mass="16"
 annotation=""/>
<atomType
 name="Br103"
 element="Br"
 mass="79.904"
 annotation=""/>
<atomType
 name="H104"
 element="H"
 mass="1.008"
 annotation=""/>
</atomTypes>
<parameters>
</parameters>
</forcefield>
</ffml>

$$$$
20a Shen et al., 2018
  SciTegic07212313593D

 71 74  0  0  0  0            999 V2000
   13.1375  -27.9209    0.2540 C   0  0  1  0  0  0
   13.2632  -29.4185   -0.2374 C   0  0  1  0  0  0
   14.6242  -30.0090    0.2998 C   0  0  2  0  0  0
   15.7835  -29.0893   -0.2069 C   0  0  1  0  0  0
   15.6007  -27.7356    0.2542 O   0  0
   14.3835  -27.1515   -0.2679 C   0  0  2  0  0  0
   14.3296  -25.6674    0.1908 C   0  0
   12.1073  -30.1692    0.2760 O   0  0
   17.3553  -29.7118    0.4292 S   0  0
   11.9455  -27.2599   -0.3303 O   0  0
   14.7721  -31.3844   -0.2227 N   0  0
   13.1678  -24.9963   -0.3158 O   0  0
   18.7826  -28.7955   -0.1252 C   0  0
   10.6186  -27.5095    0.1718 C   0  0
    9.6704  -26.9827   -0.4223 O   0  0
   10.3195  -28.2763    1.4424 C   0  0
   13.2084  -23.6483    0.0587 C   0  0
   11.7102  -31.4458   -0.2432 C   0  0
   12.2821  -32.0721   -1.4917 C   0  0
   10.7632  -32.0162    0.3105 O   0  0
   15.7101  -32.3070    0.0622 C   0  0
   15.6406  -33.6422   -0.6232 C   0  0
   16.6280  -32.0968    0.8571 O   0  0
   12.1014  -22.7185   -0.3496 C   0  0
   14.1605  -23.2164    0.7196 O   0  0
   20.0293  -29.5740    0.3755 C   0  0
   21.3235  -28.9119    0.1967 N   0  0
   22.4714  -29.7210    0.1359 C   0  0
   23.7850  -29.1033    0.0413 C   0  0
   23.8895  -27.6610   -0.0107 C   0  0
   22.8001  -26.8990    0.0294 C   0  0
   21.4773  -27.4857    0.1241 C   0  0
   25.1994  -27.0519   -0.0916 C   0  0
   25.3227  -25.7269   -0.1337 C   0  0
   24.1271  -24.8840   -0.0950 C   0  0
   22.9241  -25.4461   -0.0191 C   0  0
   24.8875  -29.8540    0.0082 C   0  0
   26.2289  -29.2341   -0.0785 C   0  0
   26.3744  -27.9086   -0.1262 C   0  0
   20.5196  -26.7089    0.1930 O   0  0
   22.3710  -30.9518    0.2032 O   0  0
   13.0968  -27.8817    1.3425 H   0  0
   13.2598  -29.4455   -1.3271 H   0  0
   14.6152  -30.0263    1.3897 H   0  0
   15.8043  -29.1006   -1.2966 H   0  0
   14.4023  -27.1919   -1.3570 H   0  0
   14.3087  -25.6353    1.2801 H   0  0
   15.2200  -25.1536   -0.1714 H   0  0
   14.0275  -31.6898   -0.9279 H   0  0
   18.7902  -28.7329   -1.2134 H   0  0
   18.7719  -27.7907    0.2970 H   0  0
    9.2412  -28.3220    1.5945 H   0  0
   10.7844  -27.7720    2.2896 H   0  0
   10.7174  -29.2877    1.3591 H   0  0
   11.8097  -33.0393   -1.6627 H   0  0
   13.3566  -32.2095   -1.3704 H   0  0
   12.0937  -31.4203   -2.3448 H   0  0
   16.4660  -34.2684   -0.2846 H   0  0
   15.7108  -33.5015   -1.7019 H   0  0
   14.6946  -34.1267   -0.3812 H   0  0
   12.3072  -21.7183    0.0315 H   0  0
   11.1566  -23.0756    0.0603 H   0  0
   12.0361  -22.6860   -1.4371 H   0  0
   19.8973  -29.7622    1.4410 H   0  0
   20.0652  -30.5228   -0.1599 H   0  0
   26.3110  -25.2715   -0.1967 H   0  0
   24.2222  -23.7986   -0.1282 H   0  0
   22.0311  -24.8216    0.0067 H   0  0
   24.7991  -30.9398    0.0456 H   0  0
   27.1129  -29.8713   -0.1039 H   0  0
   27.3699  -27.4694   -0.1908 H   0  0
  1  2  1  0
  2  3  1  0
  3  4  1  0
  4  5  1  0
  5  6  1  0
  6  1  1  0
  6  7  1  0
  2  8  1  0
  4  9  1  0
  1 10  1  0
  3 11  1  0
  7 12  1  0
  9 13  1  0
 10 14  1  0
 14 15  2  0
 14 16  1  0
 12 17  1  0
  8 18  1  0
 18 19  1  0
 18 20  2  0
 11 21  1  0
 21 22  1  0
 21 23  2  0
 17 24  1  0
 17 25  2  0
 13 26  1  0
 26 27  1  0
 27 28  1  0
 28 29  1  0
 29 30  1  0
 30 31  2  0
 31 32  1  0
 32 27  1  0
 30 33  1  0
 33 34  2  0
 34 35  1  0
 35 36  2  0
 36 31  1  0
 29 37  2  0
 37 38  1  0
 38 39  2  0
 39 33  1  0
 32 40  2  0
 28 41  2  0
  1 42  1  0
  2 43  1  0
  3 44  1  0
  4 45  1  0
  6 46  1  0
  7 47  1  0
  7 48  1  0
 11 49  1  0
 13 50  1  0
 13 51  1  0
 16 52  1  0
 16 53  1  0
 16 54  1  0
 19 55  1  0
 19 56  1  0
 19 57  1  0
 22 58  1  0
 22 59  1  0
 22 60  1  0
 24 61  1  0
 24 62  1  0
 24 63  1  0
 26 64  1  0
 26 65  1  0
 34 66  1  0
 35 67  1  0
 36 68  1  0
 37 69  1  0
 38 70  1  0
 39 71  1  0
M  END
> <Name>
20a Shen et al., 2018

> <Clean Energy>
21.4829711914062

> <Reference>
Shen et al., 2018

> <Forcefield>
MMFF

> <ForcefieldBase>
MMFF

> <ForcefieldFFML>
<?xml version="1.0" encoding="UTF-8"?>
<!DOCTYPE ffml SYSTEM "Ffml.dtd">
<ffml version="1.0">
<forcefield name="20a Shen et al., 2018-MMFF" derivedFrom="MMFF" base="MMFF">
<atomTypes>
<atomType
 name="C100"
 element="C"
 mass="12.011"
 annotation=""/>
<atomType
 name="O101"
 element="O"
 mass="16"
 annotation=""/>
<atomType
 name="S102"
 element="S"
 mass="32.066"
 annotation=""/>
<atomType
 name="N103"
 element="N"
 mass="14.007"
 annotation=""/>
<atomType
 name="H104"
 element="H"
 mass="1.008"
 annotation=""/>
</atomTypes>
<parameters>
</parameters>
</forcefield>
</ffml>

$$$$
20b Shen et al., 2018
  SciTegic07212313593D

 74 77  0  0  0  0            999 V2000
   13.6979  -29.0583    0.2626 C   0  0  1  0  0  0
   13.8246  -30.5645   -0.1872 C   0  0  1  0  0  0
   15.1671  -31.1469    0.4199 C   0  0  2  0  0  0
   16.3734  -30.2518   -0.0835 C   0  0  1  0  0  0
   16.1688  -28.8760    0.3019 O   0  0
   14.9553  -28.3078   -0.2579 C   0  0  2  0  0  0
   14.8937  -26.8164    0.1721 C   0  0
   12.6537  -31.3019    0.3074 O   0  0
   17.9477  -30.8185    0.6604 S   0  0
   12.5136  -28.4060   -0.3482 O   0  0
   15.2420  -32.5825    0.0077 N   0  0
   13.7332  -26.1548   -0.3474 O   0  0
   19.4421  -30.0191    0.0233 C   0  0
   11.1810  -28.6388    0.1596 C   0  0
   10.2354  -28.1179   -0.4435 O   0  0
   10.8760  -29.3793    1.4463 C   0  0
   13.7582  -24.8103    0.0387 C   0  0
   12.2586  -32.5627   -0.2635 C   0  0
   12.8459  -33.1383   -1.5342 C   0  0
   11.3036  -33.1538    0.2532 O   0  0
   16.2690  -33.4607   -0.0188 C   0  0
   16.0046  -34.8588   -0.4911 C   0  0
   17.4124  -33.1841    0.3289 O   0  0
   12.6465  -23.8869   -0.3701 C   0  0
   14.6989  -24.3771    0.7149 O   0  0
   20.6513  -30.9548    0.3690 C   0  0
   21.9759  -30.3757   -0.1972 C   0  0
   23.1905  -31.2320   -0.0794 N   0  0
   23.1751  -32.6715   -0.0256 C   0  0
   24.4525  -33.3939    0.0185 C   0  0
   25.6988  -32.6532    0.0193 C   0  0
   25.6957  -31.3231   -0.0123 C   0  0
   24.4324  -30.5743   -0.0584 C   0  0
   26.9557  -33.3828    0.0559 C   0  0
   28.1146  -32.7274    0.0541 C   0  0
   28.1200  -31.2637    0.0200 C   0  0
   26.9678  -30.5953   -0.0127 C   0  0
   24.4745  -34.7286    0.0459 C   0  0
   25.7551  -35.4750    0.0829 C   0  0
   26.9269  -34.8372    0.0866 C   0  0
   24.4639  -29.3407   -0.1099 O   0  0
   22.1265  -33.3248   -0.0578 O   0  0
   13.6443  -28.9935    1.3494 H   0  0
   13.8599  -30.6203   -1.2752 H   0  0
   15.1163  -31.0931    1.5074 H   0  0
   16.4429  -30.3164   -1.1694 H   0  0
   14.9922  -28.3714   -1.3455 H   0  0
   14.8700  -26.7650    1.2606 H   0  0
   15.7838  -26.3069   -0.1970 H   0  0
   14.3111  -32.9894   -0.3280 H   0  0
   19.3658  -29.8913   -1.0565 H   0  0
   19.5758  -29.0462    0.4963 H   0  0
    9.7973  -29.4157    1.5982 H   0  0
   11.3431  -28.8610    2.2838 H   0  0
   11.2680  -30.3945    1.3836 H   0  0
   12.3776  -34.0988   -1.7489 H   0  0
   13.9195  -33.2782   -1.4080 H   0  0
   12.6641  -32.4529   -2.3621 H   0  0
   16.9280  -35.4366   -0.4524 H   0  0
   15.6355  -34.8328   -1.5164 H   0  0
   15.2579  -35.3249    0.1518 H   0  0
   12.8404  -22.8883    0.0213 H   0  0
   11.7017  -24.2558    0.0290 H   0  0
   12.5894  -23.8454   -1.4579 H   0  0
   20.7350  -31.0451    1.4520 H   0  0
   20.4771  -31.9391   -0.0658 H   0  0
   21.8193  -30.1701   -1.2561 H   0  0
   22.1786  -29.4426    0.3285 H   0  0
   29.0551  -33.2780    0.0779 H   0  0
   29.0655  -30.7213    0.0215 H   0  0
   26.9714  -29.5056   -0.0399 H   0  0
   23.5340  -35.2794    0.0410 H   0  0
   25.7388  -36.5646    0.1076 H   0  0
   27.8582  -35.4030    0.1125 H   0  0
  1  2  1  0
  2  3  1  0
  3  4  1  0
  4  5  1  0
  5  6  1  0
  6  1  1  0
  6  7  1  0
  2  8  1  0
  4  9  1  0
  1 10  1  0
  3 11  1  0
  7 12  1  0
  9 13  1  0
 10 14  1  0
 14 15  2  0
 14 16  1  0
 12 17  1  0
  8 18  1  0
 18 19  1  0
 18 20  2  0
 11 21  1  0
 21 22  1  0
 21 23  2  0
 17 24  1  0
 17 25  2  0
 13 26  1  0
 26 27  1  0
 27 28  1  0
 28 29  1  0
 29 30  1  0
 30 31  1  0
 31 32  2  0
 32 33  1  0
 33 28  1  0
 31 34  1  0
 34 35  2  0
 35 36  1  0
 36 37  2  0
 37 32  1  0
 30 38  2  0
 38 39  1  0
 39 40  2  0
 40 34  1  0
 33 41  2  0
 29 42  2  0
  1 43  1  0
  2 44  1  0
  3 45  1  0
  4 46  1  0
  6 47  1  0
  7 48  1  0
  7 49  1  0
 11 50  1  0
 13 51  1  0
 13 52  1  0
 16 53  1  0
 16 54  1  0
 16 55  1  0
 19 56  1  0
 19 57  1  0
 19 58  1  0
 22 59  1  0
 22 60  1  0
 22 61  1  0
 24 62  1  0
 24 63  1  0
 24 64  1  0
 26 65  1  0
 26 66  1  0
 27 67  1  0
 27 68  1  0
 35 69  1  0
 36 70  1  0
 37 71  1  0
 38 72  1  0
 39 73  1  0
 40 74  1  0
M  END
> <Name>
20b Shen et al., 2018

> <Clean Energy>
25.8733425140381

> <Reference>
Shen et al., 2018

> <Forcefield>
MMFF

> <ForcefieldBase>
MMFF

> <ForcefieldFFML>
<?xml version="1.0" encoding="UTF-8"?>
<!DOCTYPE ffml SYSTEM "Ffml.dtd">
<ffml version="1.0">
<forcefield name="20b Shen et al., 2018-MMFF" derivedFrom="MMFF" base="MMFF">
<atomTypes>
<atomType
 name="C100"
 element="C"
 mass="12.011"
 annotation=""/>
<atomType
 name="O101"
 element="O"
 mass="16"
 annotation=""/>
<atomType
 name="S102"
 element="S"
 mass="32.066"
 annotation=""/>
<atomType
 name="N103"
 element="N"
 mass="14.007"
 annotation=""/>
<atomType
 name="H104"
 element="H"
 mass="1.008"
 annotation=""/>
</atomTypes>
<parameters>
</parameters>
</forcefield>
</ffml>

$$$$
20c Shen et al., 2018
  SciTegic07212313593D

 77 80  0  0  0  0            999 V2000
   14.2064  -27.9668    0.2603 C   0  0  1  0  0  0
   14.3425  -29.4634   -0.2219 C   0  0  1  0  0  0
   15.7093  -30.0422    0.3264 C   0  0  2  0  0  0
   16.8772  -29.1147   -0.1849 C   0  0  1  0  0  0
   16.6753  -27.7601    0.2619 O   0  0
   15.4491  -27.1928   -0.2646 C   0  0  2  0  0  0
   15.3825  -25.7093    0.1864 C   0  0
   13.1855  -30.2174    0.2893 O   0  0
   18.4750  -29.7095    0.4599 S   0  0
   13.0099  -27.3150   -0.3293 O   0  0
   15.8486  -31.4251   -0.1786 N   0  0
   14.2153  -25.0506   -0.3205 O   0  0
   19.9253  -28.8119   -0.1274 C   0  0
   11.6821  -27.5674    0.1731 C   0  0
   10.7325  -27.0456   -0.4234 O   0  0
   11.3841  -28.3303    1.4463 C   0  0
   14.2470  -23.7039    0.0548 C   0  0
   12.7913  -31.4926   -0.2386 C   0  0
   13.3695  -32.1095   -1.4890 C   0  0
   11.8416  -32.0675    0.3065 O   0  0
   16.8106  -32.3324    0.0682 C   0  0
   16.7138  -33.6816   -0.5853 C   0  0
   17.7688  -32.1017    0.8061 O   0  0
   13.1337  -22.7813   -0.3508 C   0  0
   15.1972  -23.2670    0.7152 O   0  0
   21.1703  -29.6590    0.2715 C   0  0
   22.4671  -28.9459   -0.1441 C   0  0
   23.7232  -29.7880    0.2474 C   0  0
   25.0324  -29.0875    0.1139 N   0  0
   26.2071  -29.8707    0.0723 C   0  0
   27.5161  -29.2185    0.0156 C   0  0
   27.5935  -27.7730   -0.0119 C   0  0
   26.4886  -27.0340    0.0078 C   0  0
   25.1698  -27.6470    0.0656 C   0  0
   28.8953  -27.1346   -0.0589 C   0  0
   28.9934  -25.8068   -0.0801 C   0  0
   27.7808  -24.9889   -0.0597 C   0  0
   26.5875  -25.5759   -0.0172 C   0  0
   28.6367  -29.9438   -0.0002 C   0  0
   29.9683  -29.2942   -0.0491 C   0  0
   30.0881  -27.9657   -0.0758 C   0  0
   24.2034  -26.8806    0.1156 O   0  0
   26.1361  -31.1043    0.1185 O   0  0
   14.1643  -27.9220    1.3485 H   0  0
   14.3449  -29.4957   -1.3114 H   0  0
   15.6951  -30.0485    1.4163 H   0  0
   16.9002  -29.1338   -1.2744 H   0  0
   15.4690  -27.2383   -1.3535 H   0  0
   15.3632  -25.6724    1.2756 H   0  0
   16.2678  -25.1894   -0.1796 H   0  0
   15.0705  -31.7517   -0.8364 H   0  0
   19.8817  -28.6960   -1.2104 H   0  0
   19.9739  -27.8293    0.3419 H   0  0
   10.3057  -28.3789    1.5975 H   0  0
   11.8463  -27.8213    2.2921 H   0  0
   11.7853  -29.3407    1.3674 H   0  0
   12.8998  -33.0766   -1.6683 H   0  0
   14.4438  -32.2456   -1.3643 H   0  0
   13.1831  -31.4525   -2.3386 H   0  0
   17.5640  -34.2935   -0.2842 H   0  0
   16.7182  -33.5622   -1.6687 H   0  0
   15.7888  -34.1693   -0.2776 H   0  0
   13.3334  -21.7802    0.0310 H   0  0
   12.1918  -23.1451    0.0600 H   0  0
   13.0666  -22.7482   -1.4383 H   0  0
   21.1726  -29.8051    1.3517 H   0  0
   21.1190  -30.6272   -0.2265 H   0  0
   22.4610  -28.7972   -1.2239 H   0  0
   22.5173  -27.9788    0.3561 H   0  0
   23.6110  -30.0946    1.2873 H   0  0
   23.7480  -30.6707   -0.3916 H   0  0
   29.9736  -25.3312   -0.1125 H   0  0
   27.8547  -23.9015   -0.0793 H   0  0
   25.6825  -24.9686   -0.0011 H   0  0
   28.5715  -31.0316    0.0232 H   0  0
   30.8655  -29.9130   -0.0635 H   0  0
   31.0756  -27.5056   -0.1103 H   0  0
  1  2  1  0
  2  3  1  0
  3  4  1  0
  4  5  1  0
  5  6  1  0
  6  1  1  0
  6  7  1  0
  2  8  1  0
  4  9  1  0
  1 10  1  0
  3 11  1  0
  7 12  1  0
  9 13  1  0
 10 14  1  0
 14 15  2  0
 14 16  1  0
 12 17  1  0
  8 18  1  0
 18 19  1  0
 18 20  2  0
 11 21  1  0
 21 22  1  0
 21 23  2  0
 17 24  1  0
 17 25  2  0
 13 26  1  0
 26 27  1  0
 27 28  1  0
 29 28  1  0
 29 30  1  0
 30 31  1  0
 31 32  1  0
 32 33  2  0
 33 34  1  0
 34 29  1  0
 32 35  1  0
 35 36  2  0
 36 37  1  0
 37 38  2  0
 38 33  1  0
 31 39  2  0
 39 40  1  0
 40 41  2  0
 41 35  1  0
 34 42  2  0
 30 43  2  0
  1 44  1  0
  2 45  1  0
  3 46  1  0
  4 47  1  0
  6 48  1  0
  7 49  1  0
  7 50  1  0
 11 51  1  0
 13 52  1  0
 13 53  1  0
 16 54  1  0
 16 55  1  0
 16 56  1  0
 19 57  1  0
 19 58  1  0
 19 59  1  0
 22 60  1  0
 22 61  1  0
 22 62  1  0
 24 63  1  0
 24 64  1  0
 24 65  1  0
 26 66  1  0
 26 67  1  0
 27 68  1  0
 27 69  1  0
 28 70  1  0
 28 71  1  0
 36 72  1  0
 37 73  1  0
 38 74  1  0
 39 75  1  0
 40 76  1  0
 41 77  1  0
M  END
> <Name>
20c Shen et al., 2018

> <Clean Energy>
22.4247360229492

> <Reference>
Shen et al., 2018

> <Forcefield>
MMFF

> <ForcefieldBase>
MMFF

> <ForcefieldFFML>
<?xml version="1.0" encoding="UTF-8"?>
<!DOCTYPE ffml SYSTEM "Ffml.dtd">
<ffml version="1.0">
<forcefield name="20c Shen et al., 2018-MMFF" derivedFrom="MMFF" base="MMFF">
<atomTypes>
<atomType
 name="C100"
 element="C"
 mass="12.011"
 annotation=""/>
<atomType
 name="O101"
 element="O"
 mass="16"
 annotation=""/>
<atomType
 name="S102"
 element="S"
 mass="32.066"
 annotation=""/>
<atomType
 name="N103"
 element="N"
 mass="14.007"
 annotation=""/>
<atomType
 name="H104"
 element="H"
 mass="1.008"
 annotation=""/>
</atomTypes>
<parameters>
</parameters>
</forcefield>
</ffml>

$$$$
20d Shen et al., 2018
  SciTegic07212313593D

 80 83  0  0  0  0            999 V2000
   14.7519  -29.0535    0.2616 C   0  0  1  0  0  0
   14.8842  -30.5543   -0.2016 C   0  0  1  0  0  0
   16.2411  -31.1352    0.3778 C   0  0  2  0  0  0
   17.4371  -30.2222   -0.1324 C   0  0  1  0  0  0
   17.2259  -28.8559    0.2805 O   0  0
   16.0015  -28.2919   -0.2638 C   0  0  2  0  0  0
   15.9337  -26.8037    0.1736 C   0  0
   13.7197  -31.3001    0.3016 O   0  0
   19.0368  -30.7941    0.5678 S   0  0
   13.5596  -28.4030   -0.3391 O   0  0
   16.3343  -32.5486   -0.0752 N   0  0
   14.7669  -26.1478   -0.3391 O   0  0
   20.5340  -29.9399   -0.0175 C   0  0
   12.2292  -28.6448    0.1680 C   0  0
   11.2809  -28.1241   -0.4314 O   0  0
   11.9289  -29.3945    1.4495 C   0  0
   14.7890  -24.8026    0.0434 C   0  0
   13.3219  -32.5637   -0.2581 C   0  0
   13.9004  -33.1475   -1.5272 C   0  0
   12.3703  -33.1512    0.2694 O   0  0
   17.3377  -33.4427    0.0239 C   0  0
   17.1288  -34.8212   -0.5314 C   0  0
   18.4166  -33.1896    0.5535 O   0  0
   13.6719  -23.8842   -0.3620 C   0  0
   15.7324  -24.3643    0.7124 O   0  0
   21.7629  -30.8293    0.3979 C   0  0
   23.1204  -30.2192   -0.0604 C   0  0
   24.3051  -31.2022    0.2504 C   0  0
   25.6555  -30.5434   -0.1850 C   0  0
   26.9062  -31.3553   -0.0766 N   0  0
   26.9488  -32.7912   -0.0321 C   0  0
   28.2524  -33.4636    0.0089 C   0  0
   29.4720  -32.6790    0.0093 C   0  0
   29.4215  -31.3499   -0.0089 C   0  0
   28.1283  -30.6473   -0.0526 C   0  0
   30.7540  -33.3646    0.0456 C   0  0
   31.8899  -32.6699    0.0450 C   0  0
   31.8447  -31.2065    0.0211 C   0  0
   30.6697  -30.5777   -0.0086 C   0  0
   28.3217  -34.7963    0.0269 C   0  0
   29.6265  -35.4973    0.0604 C   0  0
   30.7754  -34.8194    0.0662 C   0  0
   28.1147  -29.4128   -0.0941 O   0  0
   25.9277  -33.4855   -0.0642 O   0  0
   14.7050  -28.9969    1.3491 H   0  0
   14.9036  -30.5996   -1.2904 H   0  0
   16.2076  -31.1082    1.4670 H   0  0
   17.4844  -30.2660   -1.2205 H   0  0
   16.0291  -28.3486   -1.3520 H   0  0
   15.9140  -26.7572    1.2624 H   0  0
   16.8193  -26.2872   -0.1967 H   0  0
   15.4562  -32.9182   -0.5623 H   0  0
   20.5019  -29.8289   -1.1014 H   0  0
   20.6096  -28.9567    0.4469 H   0  0
   10.8506  -29.4366    1.6023 H   0  0
   12.3946  -28.8796    2.2899 H   0  0
   12.3253  -30.4075    1.3799 H   0  0
   13.4307  -34.1095   -1.7322 H   0  0
   14.9748  -33.2866   -1.4070 H   0  0
   13.7132  -32.4678   -2.3586 H   0  0
   18.0273  -35.4174   -0.3728 H   0  0
   16.9209  -34.7555   -1.5994 H   0  0
   16.2863  -35.2932   -0.0260 H   0  0
   13.8643  -22.8840    0.0260 H   0  0
   12.7305  -24.2555    0.0430 H   0  0
   13.6090  -23.8457   -1.4495 H   0  0
   21.7724  -30.9276    1.4835 H   0  0
   21.6512  -31.8141   -0.0556 H   0  0
   23.0838  -30.0314   -1.1335 H   0  0
   23.2869  -29.2803    0.4678 H   0  0
   24.3316  -31.4128    1.3195 H   0  0
   24.1600  -32.1317   -0.3001 H   0  0
   25.5499  -30.2510   -1.2297 H   0  0
   25.7937  -29.6539    0.4296 H   0  0
   32.8487  -33.1880    0.0623 H   0  0
   32.7709  -30.6319    0.0277 H   0  0
   30.6358  -29.4885   -0.0328 H   0  0
   27.4012  -35.3799    0.0167 H   0  0
   29.6482  -36.5869    0.0808 H   0  0
   31.7258  -35.3527    0.0863 H   0  0
  1  2  1  0
  2  3  1  0
  3  4  1  0
  4  5  1  0
  5  6  1  0
  6  1  1  0
  6  7  1  0
  2  8  1  0
  4  9  1  0
  1 10  1  0
  3 11  1  0
  7 12  1  0
  9 13  1  0
 10 14  1  0
 14 15  2  0
 14 16  1  0
 12 17  1  0
  8 18  1  0
 18 19  1  0
 18 20  2  0
 11 21  1  0
 21 22  1  0
 21 23  2  0
 17 24  1  0
 17 25  2  0
 13 26  1  0
 26 27  1  0
 27 28  1  0
 29 28  1  0
 29 30  1  0
 30 31  1  0
 31 32  1  0
 32 33  1  0
 33 34  2  0
 34 35  1  0
 35 30  1  0
 33 36  1  0
 36 37  2  0
 37 38  1  0
 38 39  2  0
 39 34  1  0
 32 40  2  0
 40 41  1  0
 41 42  2  0
 42 36  1  0
 35 43  2  0
 31 44  2  0
  1 45  1  0
  2 46  1  0
  3 47  1  0
  4 48  1  0
  6 49  1  0
  7 50  1  0
  7 51  1  0
 11 52  1  0
 13 53  1  0
 13 54  1  0
 16 55  1  0
 16 56  1  0
 16 57  1  0
 19 58  1  0
 19 59  1  0
 19 60  1  0
 22 61  1  0
 22 62  1  0
 22 63  1  0
 24 64  1  0
 24 65  1  0
 24 66  1  0
 26 67  1  0
 26 68  1  0
 27 69  1  0
 27 70  1  0
 28 71  1  0
 28 72  1  0
 29 73  1  0
 29 74  1  0
 37 75  1  0
 38 76  1  0
 39 77  1  0
 40 78  1  0
 41 79  1  0
 42 80  1  0
M  END
> <Name>
20d Shen et al., 2018

> <Clean Energy>
25.0951194763184

> <Reference>
Shen et al., 2018

> <Forcefield>
MMFF

> <ForcefieldBase>
MMFF

> <ForcefieldFFML>
<?xml version="1.0" encoding="UTF-8"?>
<!DOCTYPE ffml SYSTEM "Ffml.dtd">
<ffml version="1.0">
<forcefield name="20d Shen et al., 2018-MMFF" derivedFrom="MMFF" base="MMFF">
<atomTypes>
<atomType
 name="C100"
 element="C"
 mass="12.011"
 annotation=""/>
<atomType
 name="O101"
 element="O"
 mass="16"
 annotation=""/>
<atomType
 name="S102"
 element="S"
 mass="32.066"
 annotation=""/>
<atomType
 name="N103"
 element="N"
 mass="14.007"
 annotation=""/>
<atomType
 name="H104"
 element="H"
 mass="1.008"
 annotation=""/>
</atomTypes>
<parameters>
</parameters>
</forcefield>
</ffml>

$$$$
20e Shen et al., 2018
  SciTegic07212313593D

 83 86  0  0  0  0            999 V2000
   15.2772  -28.0185    0.2633 C   0  0  1  0  0  0
   15.4148  -29.5156   -0.2106 C   0  0  1  0  0  0
   16.7830  -30.0930    0.3478 C   0  0  2  0  0  0
   17.9648  -29.1664   -0.1678 C   0  0  1  0  0  0
   17.7513  -27.8082    0.2663 O   0  0
   16.5203  -27.2474   -0.2645 C   0  0  2  0  0  0
   16.4495  -25.7622    0.1799 C   0  0
   14.2554  -30.2679    0.2987 O   0  0
   19.5841  -29.7387    0.4900 S   0  0
   14.0796  -27.3691   -0.3299 O   0  0
   16.9002  -31.4869   -0.1349 N   0  0
   15.2795  -25.1083   -0.3270 O   0  0
   21.0517  -28.8313   -0.0965 C   0  0
   12.7504  -27.6185    0.1741 C   0  0
   11.8010  -27.0972   -0.4234 O   0  0
   12.4516  -28.3771    1.4499 C   0  0
   15.3055  -23.7622    0.0500 C   0  0
   13.8586  -31.5369   -0.2457 C   0  0
   14.4357  -32.1357   -1.5065 C   0  0
   12.9080  -32.1184    0.2907 O   0  0
   17.8828  -32.3848    0.0550 C   0  0
   17.7386  -33.7495   -0.5554 C   0  0
   18.8939  -32.1386    0.7105 O   0  0
   14.1878  -22.8438   -0.3532 C   0  0
   16.2539  -23.3224    0.7110 O   0  0
   22.3203  -29.6683    0.3051 C   0  0
   23.6442  -28.9800   -0.1446 C   0  0
   24.8839  -29.8798    0.1926 C   0  0
   26.1941  -29.1107   -0.1529 C   0  0
   27.4844  -29.9421    0.1780 C   0  0
   28.7931  -29.2059    0.0738 N   0  0
   29.9847  -29.9679    0.0457 C   0  0
   31.2874  -29.2954    0.0068 C   0  0
   31.3476  -27.8495   -0.0102 C   0  0
   30.2324  -27.1245   -0.0020 C   0  0
   28.9111  -27.7607    0.0367 C   0  0
   32.6456  -27.1952   -0.0410 C   0  0
   32.7297  -25.8665   -0.0535 C   0  0
   31.5074  -25.0626   -0.0430 C   0  0
   30.3187  -25.6625   -0.0169 C   0  0
   32.4175  -30.0067   -0.0002 C   0  0
   33.7429  -29.3425   -0.0318 C   0  0
   33.8485  -28.0128   -0.0493 C   0  0
   27.9299  -27.0128    0.0722 O   0  0
   29.9337  -31.2023    0.0821 O   0  0
   15.2348  -27.9685    1.3513 H   0  0
   15.4222  -29.5528   -1.3000 H   0  0
   16.7635  -30.0856    1.4376 H   0  0
   17.9914  -29.1937   -1.2572 H   0  0
   16.5407  -27.2977   -1.3531 H   0  0
   16.4324  -25.7208    1.2690 H   0  0
   17.3326  -25.2413   -0.1901 H   0  0
   16.0776  -31.8330   -0.7252 H   0  0
   21.0096  -28.7173   -1.1797 H   0  0
   21.0921  -27.8478    0.3716 H   0  0
   11.3733  -28.4238    1.6014 H   0  0
   12.9148  -27.8661    2.2940 H   0  0
   12.8515  -29.3883    1.3739 H   0  0
   13.9659  -33.1001   -1.6993 H   0  0
   15.5101  -32.2733   -1.3852 H   0  0
   14.2480  -31.4664   -2.3461 H   0  0
   18.6130  -34.3521   -0.3099 H   0  0
   17.6544  -33.6567   -1.6382 H   0  0
   16.8437  -34.2315   -0.1618 H   0  0
   14.3836  -21.8423    0.0299 H   0  0
   13.2479  -23.2121    0.0579 H   0  0
   14.1196  -22.8093   -1.4406 H   0  0
   22.3356  -29.7848    1.3888 H   0  0
   22.2572  -30.6495   -0.1654 H   0  0
   23.6097  -28.8084   -1.2205 H   0  0
   23.7442  -28.0259    0.3730 H   0  0
   24.8763  -30.1253    1.2546 H   0  0
   24.8365  -30.7977   -0.3933 H   0  0
   26.1921  -28.8777   -1.2177 H   0  0
   26.2179  -28.1850    0.4221 H   0  0
   27.3901  -30.3099    1.1997 H   0  0
   27.5219  -30.7861   -0.5107 H   0  0
   33.7048  -25.3798   -0.0714 H   0  0
   31.5695  -23.9745   -0.0565 H   0  0
   29.4078  -25.0640   -0.0066 H   0  0
   32.3648  -31.0953    0.0175 H   0  0
   34.6468  -29.9515   -0.0409 H   0  0
   34.8311  -27.5415   -0.0697 H   0  0
  1  2  1  0
  2  3  1  0
  3  4  1  0
  4  5  1  0
  5  6  1  0
  6  1  1  0
  6  7  1  0
  2  8  1  0
  4  9  1  0
  1 10  1  0
  3 11  1  0
  7 12  1  0
  9 13  1  0
 10 14  1  0
 14 15  2  0
 14 16  1  0
 12 17  1  0
  8 18  1  0
 18 19  1  0
 18 20  2  0
 11 21  1  0
 21 22  1  0
 21 23  2  0
 17 24  1  0
 17 25  2  0
 13 26  1  0
 26 27  1  0
 27 28  1  0
 29 28  1  0
 29 30  1  0
 31 30  1  0
 31 32  1  0
 32 33  1  0
 33 34  1  0
 34 35  2  0
 35 36  1  0
 36 31  1  0
 34 37  1  0
 37 38  2  0
 38 39  1  0
 39 40  2  0
 40 35  1  0
 33 41  2  0
 41 42  1  0
 42 43  2  0
 43 37  1  0
 36 44  2  0
 32 45  2  0
  1 46  1  0
  2 47  1  0
  3 48  1  0
  4 49  1  0
  6 50  1  0
  7 51  1  0
  7 52  1  0
 11 53  1  0
 13 54  1  0
 13 55  1  0
 16 56  1  0
 16 57  1  0
 16 58  1  0
 19 59  1  0
 19 60  1  0
 19 61  1  0
 22 62  1  0
 22 63  1  0
 22 64  1  0
 24 65  1  0
 24 66  1  0
 24 67  1  0
 26 68  1  0
 26 69  1  0
 27 70  1  0
 27 71  1  0
 28 72  1  0
 28 73  1  0
 29 74  1  0
 29 75  1  0
 30 76  1  0
 30 77  1  0
 38 78  1  0
 39 79  1  0
 40 80  1  0
 41 81  1  0
 42 82  1  0
 43 83  1  0
M  END
> <Name>
20e Shen et al., 2018

> <Clean Energy>
23.5481986999512

> <Reference>
Shen et al., 2018

> <Forcefield>
MMFF

> <ForcefieldBase>
MMFF

> <ForcefieldFFML>
<?xml version="1.0" encoding="UTF-8"?>
<!DOCTYPE ffml SYSTEM "Ffml.dtd">
<ffml version="1.0">
<forcefield name="20e Shen et al., 2018-MMFF" derivedFrom="MMFF" base="MMFF">
<atomTypes>
<atomType
 name="C100"
 element="C"
 mass="12.011"
 annotation=""/>
<atomType
 name="O101"
 element="O"
 mass="16"
 annotation=""/>
<atomType
 name="S102"
 element="S"
 mass="32.066"
 annotation=""/>
<atomType
 name="N103"
 element="N"
 mass="14.007"
 annotation=""/>
<atomType
 name="H104"
 element="H"
 mass="1.008"
 annotation=""/>
</atomTypes>
<parameters>
</parameters>
</forcefield>
</ffml>

$$$$
21a Shen et al., 2018
  SciTegic07212313593D

 56 59  0  0  0  0            999 V2000
   14.7635  -28.1080    0.3450 C   0  0  1  0  0  0
   14.8238  -29.5129   -0.2460 C   0  0  1  0  0  0
   16.1055  -30.2059    0.2118 C   0  0  2  0  0  0
   17.3127  -29.3332   -0.2478 C   0  0  1  0  0  0
   17.2151  -28.0054    0.3215 O   0  0
   16.0117  -27.3322   -0.1348 C   0  0  2  0  0  0
   15.9848  -25.8954    0.4265 C   0  0
   13.6885  -30.2689    0.1794 O   0  0
   18.8584  -30.1053    0.2983 S   0  0
   13.5698  -27.4632   -0.1068 O   0  0
   16.1350  -31.5251   -0.4134 N   0  0
   14.8208  -25.2066   -0.0457 O   0  0
   20.3002  -29.1500   -0.1795 C   0  0
   16.9132  -32.5407   -0.0290 C   0  0
   16.8387  -33.8403   -0.7756 C   0  0
   17.6987  -32.4257    0.9174 O   0  0
   21.5594  -29.9063    0.3175 C   0  0
   22.8405  -29.1988    0.1700 N   0  0
   24.0081  -29.9750    0.1192 C   0  0
   25.3072  -29.3267    0.0361 C   0  0
   25.3820  -27.8825   -0.0085 C   0  0
   24.2762  -27.1437    0.0287 C   0  0
   22.9605  -27.7640    0.1131 C   0  0
   26.6812  -27.2468   -0.0824 C   0  0
   26.7790  -25.9197   -0.1196 C   0  0
   25.5664  -25.1006   -0.0829 C   0  0
   24.3733  -25.6863   -0.0135 C   0  0
   26.4249  -30.0545    0.0047 C   0  0
   27.7537  -29.4085   -0.0735 C   0  0
   27.8732  -28.0803   -0.1152 C   0  0
   21.9823  -27.0123    0.1748 O   0  0
   23.9366  -31.2080    0.1741 O   0  0
   14.7616  -28.1660    1.4335 H   0  0
   14.8220  -29.4446   -1.3338 H   0  0
   16.1088  -30.3065    1.2971 H   0  0
   17.3111  -29.2599   -1.3354 H   0  0
   16.0133  -27.2924   -1.2241 H   0  0
   15.9643  -25.9338    1.5156 H   0  0
   16.8773  -25.3629    0.0979 H   0  0
   13.6837  -30.3343    1.2274 H   0  0
   13.5777  -27.4057   -1.1552 H   0  0
   15.4821  -31.6915   -1.2446 H   0  0
   14.8384  -25.1671   -1.0948 H   0  0
   20.3337  -29.0479   -1.2642 H   0  0
   20.2575  -28.1615    0.2778 H   0  0
   17.5340  -34.5540   -0.3338 H   0  0
   17.1029  -33.6754   -1.8202 H   0  0
   15.8250  -34.2366   -0.7158 H   0  0
   21.4200  -30.1249    1.3762 H   0  0
   21.6287  -30.8399   -0.2408 H   0  0
   27.7584  -25.4447   -0.1770 H   0  0
   25.6404  -24.0135   -0.1125 H   0  0
   23.4687  -25.0788    0.0119 H   0  0
   26.3581  -31.1420    0.0372 H   0  0
   28.6501  -30.0281   -0.0974 H   0  0
   28.8602  -27.6214   -0.1737 H   0  0
  1  2  1  0
  2  3  1  0
  3  4  1  0
  4  5  1  0
  5  6  1  0
  6  1  1  0
  6  7  1  0
  2  8  1  0
  4  9  1  0
  1 10  1  0
  3 11  1  0
  7 12  1  0
  9 13  1  0
 11 14  1  0
 14 15  1  0
 14 16  2  0
 13 17  1  0
 17 18  1  0
 18 19  1  0
 19 20  1  0
 20 21  1  0
 21 22  2  0
 22 23  1  0
 23 18  1  0
 21 24  1  0
 24 25  2  0
 25 26  1  0
 26 27  2  0
 27 22  1  0
 20 28  2  0
 28 29  1  0
 29 30  2  0
 30 24  1  0
 23 31  2  0
 19 32  2  0
  1 33  1  0
  2 34  1  0
  3 35  1  0
  4 36  1  0
  6 37  1  0
  7 38  1  0
  7 39  1  0
  8 40  1  0
 10 41  1  0
 11 42  1  0
 12 43  1  0
 13 44  1  0
 13 45  1  0
 15 46  1  0
 15 47  1  0
 15 48  1  0
 17 49  1  0
 17 50  1  0
 25 51  1  0
 26 52  1  0
 27 53  1  0
 28 54  1  0
 29 55  1  0
 30 56  1  0
M  END
> <Name>
21a Shen et al., 2018

> <Clean Energy>
2.40411138534546

> <Reference>
Shen et al., 2018

> <Forcefield>
MMFF

> <ForcefieldBase>
MMFF

> <ForcefieldFFML>
<?xml version="1.0" encoding="UTF-8"?>
<!DOCTYPE ffml SYSTEM "Ffml.dtd">
<ffml version="1.0">
<forcefield name="21a Shen et al., 2018-MMFF" derivedFrom="MMFF" base="MMFF">
<atomTypes>
<atomType
 name="C100"
 element="C"
 mass="12.011"
 annotation=""/>
<atomType
 name="O101"
 element="O"
 mass="16"
 annotation=""/>
<atomType
 name="S102"
 element="S"
 mass="32.066"
 annotation=""/>
<atomType
 name="N103"
 element="N"
 mass="14.007"
 annotation=""/>
<atomType
 name="H104"
 element="H"
 mass="1.008"
 annotation=""/>
</atomTypes>
<parameters>
</parameters>
</forcefield>
</ffml>

$$$$
21b Shen et al., 2018
  SciTegic07212313593D

 59 62  0  0  0  0            999 V2000
   15.4244  -29.5458    0.3471 C   0  0  1  0  0  0
   15.4882  -30.9526   -0.2298 C   0  0  1  0  0  0
   16.7545  -31.6521    0.2607 C   0  0  2  0  0  0
   17.9899  -30.7881   -0.1761 C   0  0  1  0  0  0
   17.8827  -29.4548    0.3772 O   0  0
   16.6879  -28.7814   -0.1125 C   0  0  2  0  0  0
   16.6538  -27.3402    0.4350 C   0  0
   14.3377  -31.6973    0.1772 O   0  0
   19.5312  -31.5654    0.4127 S   0  0
   14.2437  -28.8991   -0.1364 O   0  0
   16.7598  -32.9789   -0.3599 N   0  0
   15.5018  -26.6525   -0.0673 O   0  0
   21.0308  -30.6764   -0.0723 C   0  0
   17.5572  -33.9996   -0.0334 C   0  0
   17.4206  -35.2946   -0.7804 C   0  0
   18.4029  -33.9003    0.8598 O   0  0
   22.2408  -31.5933    0.2580 C   0  0
   23.5735  -30.9346   -0.1785 C   0  0
   24.7952  -31.7793   -0.0730 N   0  0
   24.7934  -33.2219   -0.0274 C   0  0
   26.0693  -33.9300    0.0137 C   0  0
   27.3096  -33.1834    0.0196 C   0  0
   27.3004  -31.8531   -0.0104 C   0  0
   26.0327  -31.1111   -0.0498 C   0  0
   28.5678  -33.9080    0.0501 C   0  0
   29.7240  -33.2485    0.0514 C   0  0
   29.7239  -31.7845    0.0211 C   0  0
   28.5693  -31.1200   -0.0071 C   0  0
   26.0949  -35.2640    0.0389 C   0  0
   27.3750  -36.0055    0.0732 C   0  0
   28.5441  -35.3631    0.0785 C   0  0
   26.0562  -29.8767   -0.0939 O   0  0
   23.7561  -33.8925   -0.0598 O   0  0
   15.3986  -29.5946    1.4357 H   0  0
   15.5102  -30.8931   -1.3179 H   0  0
   16.7312  -31.7480    1.3463 H   0  0
   18.0146  -30.7232   -1.2639 H   0  0
   16.7133  -28.7515   -1.2018 H   0  0
   16.6107  -27.3687    1.5238 H   0  0
   17.5544  -26.8132    0.1202 H   0  0
   14.3096  -31.7538    1.2253 H   0  0
   14.2747  -28.8511   -1.1849 H   0  0
   16.0581  -33.1463   -1.1502 H   0  0
   15.5412  -26.6225   -1.1162 H   0  0
   21.0072  -30.4610   -1.1405 H   0  0
   21.1075  -29.7430    0.4855 H   0  0
   18.1396  -36.0161   -0.3924 H   0  0
   17.6122  -35.1254   -1.8400 H   0  0
   16.4106  -35.6840   -0.6518 H   0  0
   22.2680  -31.7738    1.3326 H   0  0
   22.1232  -32.5412   -0.2673 H   0  0
   23.4683  -30.6325   -1.2205 H   0  0
   23.7261  -30.0520    0.4426 H   0  0
   30.6665  -33.7956    0.0749 H   0  0
   30.6675  -31.2388    0.0217 H   0  0
   28.5686  -30.0302   -0.0279 H   0  0
   25.1559  -35.8174    0.0342 H   0  0
   27.3625  -37.0952    0.0945 H   0  0
   29.4775  -35.9254    0.1040 H   0  0
  1  2  1  0
  2  3  1  0
  3  4  1  0
  4  5  1  0
  5  6  1  0
  6  1  1  0
  6  7  1  0
  2  8  1  0
  4  9  1  0
  1 10  1  0
  3 11  1  0
  7 12  1  0
  9 13  1  0
 11 14  1  0
 14 15  1  0
 14 16  2  0
 13 17  1  0
 17 18  1  0
 18 19  1  0
 19 20  1  0
 20 21  1  0
 21 22  1  0
 22 23  2  0
 23 24  1  0
 24 19  1  0
 22 25  1  0
 25 26  2  0
 26 27  1  0
 27 28  2  0
 28 23  1  0
 21 29  2  0
 29 30  1  0
 30 31  2  0
 31 25  1  0
 24 32  2  0
 20 33  2  0
  1 34  1  0
  2 35  1  0
  3 36  1  0
  4 37  1  0
  6 38  1  0
  7 39  1  0
  7 40  1  0
  8 41  1  0
 10 42  1  0
 11 43  1  0
 12 44  1  0
 13 45  1  0
 13 46  1  0
 15 47  1  0
 15 48  1  0
 15 49  1  0
 17 50  1  0
 17 51  1  0
 18 52  1  0
 18 53  1  0
 26 54  1  0
 27 55  1  0
 28 56  1  0
 29 57  1  0
 30 58  1  0
 31 59  1  0
M  END
> <Name>
21b Shen et al., 2018

> <Clean Energy>
3.64418911933899

> <Reference>
Shen et al., 2018

> <Forcefield>
MMFF

> <ForcefieldBase>
MMFF

> <ForcefieldFFML>
<?xml version="1.0" encoding="UTF-8"?>
<!DOCTYPE ffml SYSTEM "Ffml.dtd">
<ffml version="1.0">
<forcefield name="21b Shen et al., 2018-MMFF" derivedFrom="MMFF" base="MMFF">
<atomTypes>
<atomType
 name="C100"
 element="C"
 mass="12.011"
 annotation=""/>
<atomType
 name="O101"
 element="O"
 mass="16"
 annotation=""/>
<atomType
 name="S102"
 element="S"
 mass="32.066"
 annotation=""/>
<atomType
 name="N103"
 element="N"
 mass="14.007"
 annotation=""/>
<atomType
 name="H104"
 element="H"
 mass="1.008"
 annotation=""/>
</atomTypes>
<parameters>
</parameters>
</forcefield>
</ffml>

$$$$
21c Shen et al., 2018
  SciTegic07212313593D

 62 65  0  0  0  0            999 V2000
   16.0270  -28.1597    0.3505 C   0  0  1  0  0  0
   16.1034  -29.5647   -0.2312 C   0  0  1  0  0  0
   17.3907  -30.2436    0.2349 C   0  0  2  0  0  0
   18.5995  -29.3608   -0.2262 C   0  0  1  0  0  0
   18.4834  -28.0302    0.3346 O   0  0
   17.2696  -27.3738   -0.1294 C   0  0  2  0  0  0
   17.2229  -25.9347    0.4237 C   0  0
   14.9729  -30.3290    0.1944 O   0  0
   20.1635  -30.1187    0.3233 S   0  0
   14.8276  -27.5304   -0.1099 O   0  0
   17.4193  -31.5663   -0.3845 N   0  0
   16.0513  -25.2634   -0.0554 O   0  0
   21.6270  -29.1883   -0.1855 C   0  0
   18.2167  -32.5743   -0.0226 C   0  0
   18.1250  -33.8769   -0.7625 C   0  0
   19.0299  -32.4529    0.8986 O   0  0
   22.8821  -30.0189    0.1984 C   0  0
   24.1612  -29.2379   -0.1527 C   0  0
   25.4332  -30.0529    0.2301 C   0  0
   26.7282  -29.3271    0.1113 N   0  0
   27.9101  -30.0934    0.0733 C   0  0
   29.2100  -29.4287    0.0185 C   0  0
   29.2734  -27.9831   -0.0110 C   0  0
   28.1611  -27.2544    0.0118 C   0  0
   26.8458  -27.8843    0.0670 C   0  0
   30.5699  -27.3335   -0.0564 C   0  0
   30.6566  -26.0051   -0.0793 C   0  0
   29.4366  -25.1976   -0.0576 C   0  0
   28.2477  -25.7947   -0.0152 C   0  0
   30.3364  -30.1443    0.0005 C   0  0
   31.6617  -29.4842   -0.0483 C   0  0
   31.7700  -28.1548   -0.0753 C   0  0
   25.8674  -27.1325    0.1134 O   0  0
   27.8521  -31.3276    0.1154 O   0  0
   16.0215  -28.2114    1.4393 H   0  0
   16.1047  -29.5024   -1.3195 H   0  0
   17.3906  -30.3394    1.3206 H   0  0
   18.5980  -29.2921   -1.3140 H   0  0
   17.2740  -27.3397   -1.2189 H   0  0
   17.2000  -25.9673    1.5129 H   0  0
   18.1094  -25.3926    0.0944 H   0  0
   14.9646  -30.3883    1.2428 H   0  0
   14.8390  -27.4793   -1.1586 H   0  0
   16.7448  -31.7421   -1.1963 H   0  0
   16.0713  -25.2295   -1.1047 H   0  0
   21.6061  -29.0267   -1.2632 H   0  0
   21.6497  -28.2262    0.3263 H   0  0
   18.8392  -34.5850   -0.3424 H   0  0
   18.3527  -33.7137   -1.8159 H   0  0
   17.1164  -34.2792   -0.6673 H   0  0
   22.8662  -30.2218    1.2692 H   0  0
   22.8727  -30.9606   -0.3506 H   0  0
   24.1745  -29.0382   -1.2242 H   0  0
   24.1643  -28.2945    0.3932 H   0  0
   25.3245  -30.3754    1.2656 H   0  0
   25.4787  -30.9265   -0.4202 H   0  0
   31.6325  -25.5210   -0.1142 H   0  0
   29.5012  -24.1097   -0.0760 H   0  0
   27.3377  -25.1950   -0.0005 H   0  0
   30.2803  -31.2327    0.0221 H   0  0
   32.5641  -30.0953   -0.0623 H   0  0
   32.7535  -27.6862   -0.1115 H   0  0
  1  2  1  0
  2  3  1  0
  3  4  1  0
  4  5  1  0
  5  6  1  0
  6  1  1  0
  6  7  1  0
  2  8  1  0
  4  9  1  0
  1 10  1  0
  3 11  1  0
  7 12  1  0
  9 13  1  0
 11 14  1  0
 14 15  1  0
 14 16  2  0
 13 17  1  0
 17 18  1  0
 18 19  1  0
 20 19  1  0
 20 21  1  0
 21 22  1  0
 22 23  1  0
 23 24  2  0
 24 25  1  0
 25 20  1  0
 23 26  1  0
 26 27  2  0
 27 28  1  0
 28 29  2  0
 29 24  1  0
 22 30  2  0
 30 31  1  0
 31 32  2  0
 32 26  1  0
 25 33  2  0
 21 34  2  0
  1 35  1  0
  2 36  1  0
  3 37  1  0
  4 38  1  0
  6 39  1  0
  7 40  1  0
  7 41  1  0
  8 42  1  0
 10 43  1  0
 11 44  1  0
 12 45  1  0
 13 46  1  0
 13 47  1  0
 15 48  1  0
 15 49  1  0
 15 50  1  0
 17 51  1  0
 17 52  1  0
 18 53  1  0
 18 54  1  0
 19 55  1  0
 19 56  1  0
 27 57  1  0
 28 58  1  0
 29 59  1  0
 30 60  1  0
 31 61  1  0
 32 62  1  0
M  END
> <Name>
21c Shen et al., 2018

> <Clean Energy>
2.86163187026978

> <Reference>
Shen et al., 2018

> <Forcefield>
MMFF

> <ForcefieldBase>
MMFF

> <ForcefieldFFML>
<?xml version="1.0" encoding="UTF-8"?>
<!DOCTYPE ffml SYSTEM "Ffml.dtd">
<ffml version="1.0">
<forcefield name="21c Shen et al., 2018-MMFF" derivedFrom="MMFF" base="MMFF">
<atomTypes>
<atomType
 name="C100"
 element="C"
 mass="12.011"
 annotation=""/>
<atomType
 name="O101"
 element="O"
 mass="16"
 annotation=""/>
<atomType
 name="S102"
 element="S"
 mass="32.066"
 annotation=""/>
<atomType
 name="N103"
 element="N"
 mass="14.007"
 annotation=""/>
<atomType
 name="H104"
 element="H"
 mass="1.008"
 annotation=""/>
</atomTypes>
<parameters>
</parameters>
</forcefield>
</ffml>

$$$$
21d Shen et al., 2018
  SciTegic07212313593D

 65 68  0  0  0  0            999 V2000
   16.6678  -29.5176    0.3473 C   0  0  1  0  0  0
   16.7393  -30.9216   -0.2337 C   0  0  1  0  0  0
   18.0178  -31.6106    0.2445 C   0  0  2  0  0  0
   19.2464  -30.7358   -0.2017 C   0  0  1  0  0  0
   19.1282  -29.4045    0.3565 O   0  0
   17.9206  -28.7410   -0.1213 C   0  0  2  0  0  0
   17.8769  -27.3015    0.4301 C   0  0
   15.5986  -31.6772    0.1824 O   0  0
   20.8079  -31.5032    0.3753 S   0  0
   15.4766  -28.8803   -0.1241 O   0  0
   18.0313  -32.9337   -0.3751 N   0  0
   16.7136  -26.6240   -0.0605 O   0  0
   22.3120  -30.5913   -0.0935 C   0  0
   18.8215  -33.9500   -0.0248 C   0  0
   18.7042  -35.2505   -0.7655 C   0  0
   19.6460  -33.8401    0.8871 O   0  0
   23.5470  -31.4666    0.2972 C   0  0
   24.8873  -30.7725   -0.0731 C   0  0
   26.0851  -31.7327    0.2145 C   0  0
   27.4292  -31.0346   -0.1608 C   0  0
   28.6804  -31.8448   -0.0680 N   0  0
   28.7248  -33.2834   -0.0299 C   0  0
   30.0248  -33.9531    0.0055 C   0  0
   31.2433  -33.1693    0.0133 C   0  0
   31.1939  -31.8401   -0.0111 C   0  0
   29.9016  -31.1368   -0.0457 C   0  0
   32.5238  -33.8564    0.0399 C   0  0
   33.6601  -33.1628    0.0435 C   0  0
   33.6165  -31.6993    0.0194 C   0  0
   32.4422  -31.0692   -0.0055 C   0  0
   30.0916  -35.2856    0.0253 C   0  0
   31.3941  -35.9882    0.0550 C   0  0
   32.5435  -35.3114    0.0621 C   0  0
   29.8879  -29.9019   -0.0827 O   0  0
   27.7073  -33.9831   -0.0597 O   0  0
   16.6521  -29.5694    1.4359 H   0  0
   16.7509  -30.8594   -1.3218 H   0  0
   18.0047  -31.7080    1.3301 H   0  0
   19.2614  -30.6680   -1.2895 H   0  0
   17.9360  -28.7080   -1.2107 H   0  0
   17.8437  -27.3331    1.5191 H   0  0
   18.7695  -26.7648    0.1087 H   0  0
   15.5806  -31.7362    1.2306 H   0  0
   15.4978  -28.8294   -1.1727 H   0  0
   17.3473  -33.1024   -1.1805 H   0  0
   16.7435  -26.5910   -1.1096 H   0  0
   22.3136  -30.4076   -1.1679 H   0  0
   22.3491  -29.6406    0.4383 H   0  0
   19.4156  -35.9677   -0.3563 H   0  0
   18.9193  -35.0884   -1.8217 H   0  0
   17.6923  -35.6410   -0.6570 H   0  0
   23.5272  -31.6442    1.3724 H   0  0
   23.4854  -32.4185   -0.2301 H   0  0
   24.8788  -30.5138   -1.1320 H   0  0
   25.0006  -29.8664    0.5220 H   0  0
   26.0953  -31.9899    1.2737 H   0  0
   25.9713  -32.6397   -0.3792 H   0  0
   27.3404  -30.6893   -1.1909 H   0  0
   27.5468  -30.1769    0.5015 H   0  0
   34.6184  -33.6818    0.0643 H   0  0
   34.5434  -31.1258    0.0219 H   0  0
   32.4093  -29.9798   -0.0217 H   0  0
   29.1700  -35.8676    0.0196 H   0  0
   31.4143  -37.0779    0.0714 H   0  0
   33.4933  -35.8457    0.0844 H   0  0
  1  2  1  0
  2  3  1  0
  3  4  1  0
  4  5  1  0
  5  6  1  0
  6  1  1  0
  6  7  1  0
  2  8  1  0
  4  9  1  0
  1 10  1  0
  3 11  1  0
  7 12  1  0
  9 13  1  0
 11 14  1  0
 14 15  1  0
 14 16  2  0
 13 17  1  0
 17 18  1  0
 18 19  1  0
 20 19  1  0
 20 21  1  0
 21 22  1  0
 22 23  1  0
 23 24  1  0
 24 25  2  0
 25 26  1  0
 26 21  1  0
 24 27  1  0
 27 28  2  0
 28 29  1  0
 29 30  2  0
 30 25  1  0
 23 31  2  0
 31 32  1  0
 32 33  2  0
 33 27  1  0
 26 34  2  0
 22 35  2  0
  1 36  1  0
  2 37  1  0
  3 38  1  0
  4 39  1  0
  6 40  1  0
  7 41  1  0
  7 42  1  0
  8 43  1  0
 10 44  1  0
 11 45  1  0
 12 46  1  0
 13 47  1  0
 13 48  1  0
 15 49  1  0
 15 50  1  0
 15 51  1  0
 17 52  1  0
 17 53  1  0
 18 54  1  0
 18 55  1  0
 19 56  1  0
 19 57  1  0
 20 58  1  0
 20 59  1  0
 28 60  1  0
 29 61  1  0
 30 62  1  0
 31 63  1  0
 32 64  1  0
 33 65  1  0
M  END
> <Name>
21d Shen et al., 2018

> <Clean Energy>
3.25766158103943

> <Reference>
Shen et al., 2018

> <Forcefield>
MMFF

> <ForcefieldBase>
MMFF

> <ForcefieldFFML>
<?xml version="1.0" encoding="UTF-8"?>
<!DOCTYPE ffml SYSTEM "Ffml.dtd">
<ffml version="1.0">
<forcefield name="21d Shen et al., 2018-MMFF" derivedFrom="MMFF" base="MMFF">
<atomTypes>
<atomType
 name="C100"
 element="C"
 mass="12.011"
 annotation=""/>
<atomType
 name="O101"
 element="O"
 mass="16"
 annotation=""/>
<atomType
 name="S102"
 element="S"
 mass="32.066"
 annotation=""/>
<atomType
 name="N103"
 element="N"
 mass="14.007"
 annotation=""/>
<atomType
 name="H104"
 element="H"
 mass="1.008"
 annotation=""/>
</atomTypes>
<parameters>
</parameters>
</forcefield>
</ffml>

$$$$
21e Shen et al., 2018
  SciTegic07212313593D

 68 71  0  0  0  0            999 V2000
   17.2772  -28.2138    0.3510 C   0  0  1  0  0  0
   17.3572  -29.6181   -0.2280 C   0  0  1  0  0  0
   18.6465  -30.2951    0.2420 C   0  0  2  0  0  0
   19.8636  -29.4093   -0.2171 C   0  0  1  0  0  0
   19.7369  -28.0783    0.3409 O   0  0
   18.5194  -27.4267   -0.1276 C   0  0  2  0  0  0
   18.4672  -25.9870    0.4229 C   0  0
   16.2260  -30.3828    0.1975 O   0  0
   21.4445  -30.1560    0.3408 S   0  0
   16.0769  -27.5877   -0.1128 O   0  0
   18.6671  -31.6186   -0.3738 N   0  0
   17.2945  -25.3200   -0.0593 O   0  0
   22.9240  -29.2136   -0.1531 C   0  0
   19.4699  -32.6247   -0.0241 C   0  0
   19.3611  -33.9302   -0.7572 C   0  0
   20.2989  -32.5012    0.8820 O   0  0
   24.1946  -30.0463    0.2233 C   0  0
   25.5014  -29.2888   -0.1512 C   0  0
   26.7575  -30.1645    0.1643 C   0  0
   28.0475  -29.3484   -0.1326 C   0  0
   29.3459  -30.1705    0.1705 C   0  0
   30.6453  -29.4239    0.0744 N   0  0
   31.8381  -30.1796    0.0473 C   0  0
   33.1364  -29.5038    0.0084 C   0  0
   33.1917  -28.0579   -0.0092 C   0  0
   32.0741  -27.3365    0.0003 C   0  0
   30.7553  -27.9780    0.0390 C   0  0
   34.4873  -27.4002   -0.0408 C   0  0
   34.5674  -26.0713   -0.0542 C   0  0
   33.3426  -25.2710   -0.0427 C   0  0
   32.1556  -25.8743   -0.0155 C   0  0
   34.2681  -30.2121    0.0000 C   0  0
   35.5910  -29.5445   -0.0325 C   0  0
   35.6926  -28.2146   -0.0503 C   0  0
   29.7703  -27.2349    0.0722 O   0  0
   31.7911  -31.4142    0.0812 O   0  0
   17.2697  -28.2640    1.4399 H   0  0
   17.3602  -29.5575   -1.3163 H   0  0
   18.6431  -30.3895    1.3279 H   0  0
   19.8653  -29.3415   -1.3050 H   0  0
   18.5261  -27.3944   -1.2171 H   0  0
   18.4426  -26.0179    1.5121 H   0  0
   19.3526  -25.4428    0.0942 H   0  0
   16.2159  -30.4400    1.2459 H   0  0
   16.0902  -27.5382   -1.1616 H   0  0
   17.9796  -31.7967   -1.1741 H   0  0
   17.3161  -25.2877   -1.1086 H   0  0
   22.9054  -29.0382   -1.2287 H   0  0
   22.9426  -28.2581    0.3711 H   0  0
   20.0827  -34.6379   -0.3492 H   0  0
   19.5674  -33.7714   -1.8157 H   0  0
   18.3541  -34.3307   -0.6398 H   0  0
   24.1895  -30.2350    1.2969 H   0  0
   24.1685  -30.9948   -0.3130 H   0  0
   25.4867  -29.0550   -1.2157 H   0  0
   25.5563  -28.3644    0.4237 H   0  0
   26.7442  -30.4530    1.2154 H   0  0
   26.7423  -31.0589   -0.4586 H   0  0
   28.0491  -29.0637   -1.1847 H   0  0
   28.0465  -28.4516    0.4870 H   0  0
   29.2621  -30.5611    1.1846 H   0  0
   29.3865  -30.9991   -0.5364 H   0  0
   35.5411  -25.5818   -0.0735 H   0  0
   33.4015  -24.1827   -0.0564 H   0  0
   31.2429  -25.2786   -0.0050 H   0  0
   34.2183  -31.3008    0.0173 H   0  0
   36.4967  -30.1509   -0.0421 H   0  0
   36.6738  -27.7404   -0.0717 H   0  0
  1  2  1  0
  2  3  1  0
  3  4  1  0
  4  5  1  0
  5  6  1  0
  6  1  1  0
  6  7  1  0
  2  8  1  0
  4  9  1  0
  1 10  1  0
  3 11  1  0
  7 12  1  0
  9 13  1  0
 11 14  1  0
 14 15  1  0
 14 16  2  0
 13 17  1  0
 17 18  1  0
 18 19  1  0
 20 19  1  0
 20 21  1  0
 22 21  1  0
 22 23  1  0
 23 24  1  0
 24 25  1  0
 25 26  2  0
 26 27  1  0
 27 22  1  0
 25 28  1  0
 28 29  2  0
 29 30  1  0
 30 31  2  0
 31 26  1  0
 24 32  2  0
 32 33  1  0
 33 34  2  0
 34 28  1  0
 27 35  2  0
 23 36  2  0
  1 37  1  0
  2 38  1  0
  3 39  1  0
  4 40  1  0
  6 41  1  0
  7 42  1  0
  7 43  1  0
  8 44  1  0
 10 45  1  0
 11 46  1  0
 12 47  1  0
 13 48  1  0
 13 49  1  0
 15 50  1  0
 15 51  1  0
 15 52  1  0
 17 53  1  0
 17 54  1  0
 18 55  1  0
 18 56  1  0
 19 57  1  0
 19 58  1  0
 20 59  1  0
 20 60  1  0
 21 61  1  0
 21 62  1  0
 29 63  1  0
 30 64  1  0
 31 65  1  0
 32 66  1  0
 33 67  1  0
 34 68  1  0
M  END
> <Name>
21e Shen et al., 2018

> <Clean Energy>
3.35347533226013

> <Reference>
Shen et al., 2018

> <Forcefield>
MMFF

> <ForcefieldBase>
MMFF

> <ForcefieldFFML>
<?xml version="1.0" encoding="UTF-8"?>
<!DOCTYPE ffml SYSTEM "Ffml.dtd">
<ffml version="1.0">
<forcefield name="21e Shen et al., 2018-MMFF" derivedFrom="MMFF" base="MMFF">
<atomTypes>
<atomType
 name="C100"
 element="C"
 mass="12.011"
 annotation=""/>
<atomType
 name="O101"
 element="O"
 mass="16"
 annotation=""/>
<atomType
 name="S102"
 element="S"
 mass="32.066"
 annotation=""/>
<atomType
 name="N103"
 element="N"
 mass="14.007"
 annotation=""/>
<atomType
 name="H104"
 element="H"
 mass="1.008"
 annotation=""/>
</atomTypes>
<parameters>
</parameters>
</forcefield>
</ffml>

$$$$
5a Tropak et al., 2015
  SciTegic07212313593D

 27 28  0  0  0  0            999 V2000
   15.8947  -17.4948    0.0001 C   0  0
   16.0027  -18.7600   -0.0002 N   0  0
   17.2320  -19.3941   -0.0001 C   0  0
   18.3102  -18.7282   -0.0002 N   0  0
   18.3288  -17.3304    0.0001 C   0  0
   17.1708  -16.6317   -0.0002 C   0  0
   17.1793  -15.0501    0.0002 C   0  0
   18.3356  -14.3792    0.0000 C   0  0
   18.3815  -12.9154    0.0001 C   0  0
   17.2546  -12.2127    0.0002 C   0  0
   15.9781  -12.9045    0.0003 C   0  0
   15.9402  -14.2352    0.0002 C   0  0
   17.3068  -10.4856    0.0003 Cl  0  0
   14.4825  -16.9605    0.0000 C   0  0
   19.5899  -16.7268   -0.0001 N   0  0
   17.2855  -20.7885   -0.0002 N   0  0
   19.2715  -14.9380   -0.0002 H   0  0
   19.3428  -12.4015    0.0000 H   0  0
   15.0496  -12.3335    0.0005 H   0  0
   14.9735  -14.7388    0.0002 H   0  0
   14.5058  -15.8708    0.0002 H   0  0
   13.9603  -17.3124    0.8898 H   0  0
   13.9605  -17.3120   -0.8900 H   0  0
   20.4726  -17.3316   -0.0005 H   0  0
   19.6724  -15.6600    0.0002 H   0  0
   16.3800  -21.3586   -0.0004 H   0  0
   18.2319  -21.2876   -0.0001 H   0  0
  1  2  2  0
  2  3  1  0
  3  4  2  0
  4  5  1  0
  5  6  2  0
  6  1  1  0
  6  7  1  0
  7  8  2  0
  8  9  1  0
  9 10  2  0
 10 11  1  0
 11 12  2  0
 12  7  1  0
 10 13  1  0
  1 14  1  0
  5 15  1  0
  3 16  1  0
  8 17  1  0
  9 18  1  0
 11 19  1  0
 12 20  1  0
 14 21  1  0
 14 22  1  0
 14 23  1  0
 15 24  1  0
 15 25  1  0
 16 26  1  0
 16 27  1  0
M  END
> <Name>
5a Tropak et al., 2015

> <Clean Energy>
8.48422431945801

> <Reference>
Tropak et al., 2015

> <Forcefield>
MMFF

> <ForcefieldBase>
MMFF

> <ForcefieldFFML>
<?xml version="1.0" encoding="UTF-8"?>
<!DOCTYPE ffml SYSTEM "Ffml.dtd">
<ffml version="1.0">
<forcefield name="5a Tropak et al., 2015-MMFF" derivedFrom="MMFF" base="MMFF">
<atomTypes>
<atomType
 name="C100"
 element="C"
 mass="12.011"
 annotation=""/>
<atomType
 name="N101"
 element="N"
 mass="14.007"
 annotation=""/>
<atomType
 name="Cl102"
 element="Cl"
 mass="35.453"
 annotation=""/>
<atomType
 name="H103"
 element="H"
 mass="1.008"
 annotation=""/>
</atomTypes>
<parameters>
</parameters>
</forcefield>
</ffml>

$$$$
5b Tropak et al., 2015
  SciTegic07212313593D

 33 34  0  0  0  0            999 V2000
   15.4353  -17.6835    0.1141 C   0  0
   15.5384  -18.9498    0.1379 N   0  0
   16.7585  -19.5975    0.0809 C   0  0
   17.8411  -18.9452    0.0047 N   0  0
   17.8742  -17.5501   -0.0164 C   0  0
   16.7250  -16.8371    0.0213 C   0  0
   16.7573  -15.2536   -0.0005 C   0  0
   17.9237  -14.6006   -0.0222 C   0  0
   17.9931  -13.1375   -0.0390 C   0  0
   16.8776  -12.4171   -0.0359 C   0  0
   15.5907  -13.0887   -0.0167 C   0  0
   15.5318  -14.4187   -0.0010 C   0  0
   16.9568  -10.6910   -0.0521 Cl  0  0
   14.0218  -17.1024    0.2049 C   0  0
   19.1408  -16.9630   -0.0950 N   0  0
   16.7962  -20.9919    0.1008 N   0  0
   12.9195  -18.1808    0.4276 C   0  0
   12.7310  -19.0890   -0.8109 C   0  0
   18.8507  -15.1740   -0.0276 H   0  0
   18.9624  -12.6392   -0.0541 H   0  0
   14.6713  -12.5033   -0.0151 H   0  0
   14.5572  -14.9067    0.0117 H   0  0
   13.9906  -16.4001    1.0379 H   0  0
   13.8055  -16.5749   -0.7241 H   0  0
   20.0145  -17.5793   -0.1351 H   0  0
   19.2362  -15.8974   -0.1150 H   0  0
   15.8857  -21.5510    0.1597 H   0  0
   17.7355  -21.5024    0.0571 H   0  0
   13.2025  -18.8013    1.2779 H   0  0
   11.9759  -17.6789    0.6415 H   0  0
   11.9526  -19.8244   -0.6076 H   0  0
   13.6668  -19.6027   -1.0312 H   0  0
   12.4405  -18.4806   -1.6674 H   0  0
  1  2  2  0
  2  3  1  0
  3  4  2  0
  4  5  1  0
  5  6  2  0
  6  1  1  0
  6  7  1  0
  7  8  2  0
  8  9  1  0
  9 10  2  0
 10 11  1  0
 11 12  2  0
 12  7  1  0
 10 13  1  0
  1 14  1  0
  5 15  1  0
  3 16  1  0
 14 17  1  0
 17 18  1  0
  8 19  1  0
  9 20  1  0
 11 21  1  0
 12 22  1  0
 14 23  1  0
 14 24  1  0
 15 25  1  0
 15 26  1  0
 16 27  1  0
 16 28  1  0
 17 29  1  0
 17 30  1  0
 18 31  1  0
 18 32  1  0
 18 33  1  0
M  END
> <Name>
5b Tropak et al., 2015

> <Clean Energy>
9.30013751983643

> <Reference>
Tropak et al., 2015

> <Forcefield>
MMFF

> <ForcefieldBase>
MMFF

> <ForcefieldFFML>
<?xml version="1.0" encoding="UTF-8"?>
<!DOCTYPE ffml SYSTEM "Ffml.dtd">
<ffml version="1.0">
<forcefield name="5b Tropak et al., 2015-MMFF" derivedFrom="MMFF" base="MMFF">
<atomTypes>
<atomType
 name="C100"
 element="C"
 mass="12.011"
 annotation=""/>
<atomType
 name="N101"
 element="N"
 mass="14.007"
 annotation=""/>
<atomType
 name="Cl102"
 element="Cl"
 mass="35.453"
 annotation=""/>
<atomType
 name="H103"
 element="H"
 mass="1.008"
 annotation=""/>
</atomTypes>
<parameters>
</parameters>
</forcefield>
</ffml>

$$$$
5cTropak et al., 2015
  SciTegic07212313593D

 33 34  0  0  0  0            999 V2000
   15.4832  -17.3791   -0.0774 C   0  0
   15.5586  -18.6476   -0.0736 N   0  0
   16.7675  -19.3192   -0.0260 C   0  0
   17.8641  -18.6877    0.0345 N   0  0
   17.9266  -17.2926    0.0293 C   0  0
   16.7956  -16.5557   -0.0277 C   0  0
   16.8730  -14.9800   -0.0703 C   0  0
   18.0190  -14.3501    0.2123 C   0  0
   18.1224  -12.8899    0.1866 C   0  0
   17.0650  -12.1516   -0.1306 C   0  0
   15.8081  -12.8010   -0.4572 C   0  0
   15.7168  -14.1282   -0.4291 C   0  0
   17.1827  -10.4282   -0.1534 Cl  0  0
   14.0629  -16.8180   -0.0782 C   0  0
   19.2064  -16.7298    0.0674 N   0  0
   16.7776  -20.7145   -0.0206 N   0  0
   13.0656  -17.9763   -0.2711 C   0  0
   13.7445  -16.1388    1.2798 C   0  0
   18.8992  -14.9398    0.4685 H   0  0
   19.0695  -12.4076    0.4284 H   0  0
   14.9387  -12.2009   -0.7256 H   0  0
   14.7661  -14.6004   -0.6767 H   0  0
   13.9515  -16.0962   -0.8873 H   0  0
   20.0685  -17.3628    0.0983 H   0  0
   19.3234  -15.6662    0.0656 H   0  0
   15.8555  -21.2563   -0.0531 H   0  0
   17.7074  -21.2426    0.0161 H   0  0
   12.0486  -17.5842   -0.2729 H   0  0
   13.1771  -18.6919    0.5436 H   0  0
   13.2645  -18.4734   -1.2206 H   0  0
   12.7284  -15.7450    1.2603 H   0  0
   14.4465  -15.3229    1.4520 H   0  0
   13.8347  -16.8706    2.0826 H   0  0
  1  2  2  0
  2  3  1  0
  3  4  2  0
  4  5  1  0
  5  6  2  0
  6  1  1  0
  6  7  1  0
  7  8  2  0
  8  9  1  0
  9 10  2  0
 10 11  1  0
 11 12  2  0
 12  7  1  0
 10 13  1  0
  1 14  1  0
  5 15  1  0
  3 16  1  0
 14 17  1  0
 14 18  1  0
  8 19  1  0
  9 20  1  0
 11 21  1  0
 12 22  1  0
 14 23  1  0
 15 24  1  0
 15 25  1  0
 16 26  1  0
 16 27  1  0
 17 28  1  0
 17 29  1  0
 17 30  1  0
 18 31  1  0
 18 32  1  0
 18 33  1  0
M  END
> <Name>
5cTropak et al., 2015

> <Clean Energy>
17.6593036651611

> <Reference>
Tropak et al., 2015

> <Forcefield>
MMFF

> <ForcefieldBase>
MMFF

> <ForcefieldFFML>
<?xml version="1.0" encoding="UTF-8"?>
<!DOCTYPE ffml SYSTEM "Ffml.dtd">
<ffml version="1.0">
<forcefield name="5cTropak et al., 2015-MMFF" derivedFrom="MMFF" base="MMFF">
<atomTypes>
<atomType
 name="C100"
 element="C"
 mass="12.011"
 annotation=""/>
<atomType
 name="N101"
 element="N"
 mass="14.007"
 annotation=""/>
<atomType
 name="Cl102"
 element="Cl"
 mass="35.453"
 annotation=""/>
<atomType
 name="H103"
 element="H"
 mass="1.008"
 annotation=""/>
</atomTypes>
<parameters>
</parameters>
</forcefield>
</ffml>

$$$$
5d Tropak et al., 2015
  SciTegic07212313593D

 36 37  0  0  0  0            999 V2000
   14.9936  -17.5360   -0.0003 C   0  0
   15.0331  -18.8064    0.0004 N   0  0
   16.2360  -19.5034   -0.0004 C   0  0
   17.3467  -18.8911    0.0003 N   0  0
   17.4350  -17.4952   -0.0009 C   0  0
   16.3136  -16.7410    0.0009 C   0  0
   16.3981  -15.1559   -0.0002 C   0  0
   17.5824  -14.5365    0.0000 C   0  0
   17.6872  -13.0717    0.0000 C   0  0
   16.5899  -12.3216    0.0003 C   0  0
   15.2901  -12.9560    0.0004 C   0  0
   15.1982  -14.2818    0.0005 C   0  0
   16.7087  -10.5985    0.0003 Cl  0  0
   13.6241  -16.8956    0.0002 C   0  0
   18.7232  -16.9511    0.0001 N   0  0
   16.2235  -20.8996   -0.0002 N   0  0
   12.4842  -17.9155    0.0000 C   0  0
   11.1632  -17.1172    0.0001 C   0  0
    9.9613  -18.0731   -0.0002 C   0  0
   18.4941  -15.1339    0.0003 H   0  0
   18.6687  -12.5977   -0.0002 H   0  0
   14.3861  -12.3469    0.0004 H   0  0
   14.2102  -14.7422    0.0010 H   0  0
   13.5326  -16.2736    0.8907 H   0  0
   13.5323  -16.2728   -0.8896 H   0  0
   19.5766  -17.5965    0.0016 H   0  0
   18.8554  -15.8893   -0.0008 H   0  0
   15.2920  -21.4262    0.0006 H   0  0
   17.1453  -21.4429   -0.0008 H   0  0
   12.5427  -18.5418   -0.8902 H   0  0
   12.5426  -18.5421    0.8900 H   0  0
   11.1229  -16.4896    0.8903 H   0  0
   11.1230  -16.4892   -0.8900 H   0  0
    9.0370  -17.4954   -0.0002 H   0  0
    9.9962  -18.7018    0.8895 H   0  0
    9.9963  -18.7014   -0.8902 H   0  0
  1  2  2  0
  2  3  1  0
  3  4  2  0
  4  5  1  0
  5  6  2  0
  6  1  1  0
  6  7  1  0
  7  8  2  0
  8  9  1  0
  9 10  2  0
 10 11  1  0
 11 12  2  0
 12  7  1  0
 10 13  1  0
  1 14  1  0
  5 15  1  0
  3 16  1  0
 14 17  1  0
 17 18  1  0
 18 19  1  0
  8 20  1  0
  9 21  1  0
 11 22  1  0
 12 23  1  0
 14 24  1  0
 14 25  1  0
 15 26  1  0
 15 27  1  0
 16 28  1  0
 16 29  1  0
 17 30  1  0
 17 31  1  0
 18 32  1  0
 18 33  1  0
 19 34  1  0
 19 35  1  0
 19 36  1  0
M  END
> <Name>
5d Tropak et al., 2015

> <Clean Energy>
7.99399423599243

> <Reference>
Tropak et al., 2015

> <Forcefield>
MMFF

> <ForcefieldBase>
MMFF

> <ForcefieldFFML>
<?xml version="1.0" encoding="UTF-8"?>
<!DOCTYPE ffml SYSTEM "Ffml.dtd">
<ffml version="1.0">
<forcefield name="5d Tropak et al., 2015-MMFF" derivedFrom="MMFF" base="MMFF">
<atomTypes>
<atomType
 name="C100"
 element="C"
 mass="12.011"
 annotation=""/>
<atomType
 name="N101"
 element="N"
 mass="14.007"
 annotation=""/>
<atomType
 name="Cl102"
 element="Cl"
 mass="35.453"
 annotation=""/>
<atomType
 name="H103"
 element="H"
 mass="1.008"
 annotation=""/>
</atomTypes>
<parameters>
</parameters>
</forcefield>
</ffml>

$$$$
6-azidomethyl-5-(4-chlorophenyl)pyrimidine-2,4-diamine
  SciTegic07212313593D

 29 30  0  0  0  0            999 V2000
   20.9633  -18.0402    0.0013 N   0  0
   20.9139  -19.2203    0.0002 N   0  3
   20.8654  -20.3992   -0.0010 N   0  5
   23.6052  -17.8426    0.0000 C   0  0
   23.6934  -19.1213   -0.0002 N   0  0
   24.9379  -19.8005   -0.0002 C   0  0
   26.0346  -19.1418   -0.0001 N   0  0
   26.0786  -17.6920    0.0000 C   0  0
   24.9287  -16.9691    0.0001 C   0  0
   24.9487  -15.3080    0.0003 C   0  0
   26.0957  -14.6001    0.0000 C   0  0
   26.0969  -13.0846   -0.0001 C   0  0
   24.9505  -12.4013    0.0002 C   0  0
   23.6964  -13.1422    0.0006 C   0  0
   23.6919  -14.4819    0.0007 C   0  0
   24.9413  -10.6480   -0.0002 Cl  0  0
   22.1886  -17.1987    0.0000 C   0  0
   27.3501  -17.0749    0.0001 N   0  0
   24.9612  -21.2304   -0.0004 N   0  0
   27.0474  -15.1316   -0.0002 H   0  0
   27.0449  -12.5465   -0.0004 H   0  0
   22.7506  -12.6004    0.0010 H   0  0
   22.7316  -14.9978    0.0011 H   0  0
   22.1340  -16.5712    0.8896 H   0  0
   22.1332  -16.5729   -0.8907 H   0  0
   28.2360  -17.6750    0.0000 H   0  0
   27.4268  -16.0077    0.0002 H   0  0
   24.0435  -21.7805   -0.0004 H   0  0
   25.8965  -21.7502   -0.0004 H   0  0
  2  3  2  0
  1  2  2  0
  4  5  2  0
  5  6  1  0
  6  7  2  0
  7  8  1  0
  8  9  2  0
  9  4  1  0
  9 10  1  0
 10 11  2  0
 11 12  1  0
 12 13  2  0
 13 14  1  0
 14 15  2  0
 15 10  1  0
 13 16  1  0
  4 17  1  0
  8 18  1  0
  6 19  1  0
 11 20  1  0
 12 21  1  0
 14 22  1  0
 15 23  1  0
 17 24  1  0
 17 25  1  0
 18 26  1  0
 18 27  1  0
 19 28  1  0
 19 29  1  0
 17  1  1  0
M  CHG  2   2   1   3  -1
M  END
> <Name>
6-azidomethyl-5-(4-chlorophenyl)pyrimidine-2,4-diamine

> <Clean Energy>
14.6055917739868

> <Reference>
Tropak et al., 2015

> <Forcefield>
MMFF

> <ForcefieldBase>
MMFF

> <ForcefieldFFML>
<?xml version="1.0" encoding="UTF-8"?>
<!DOCTYPE ffml SYSTEM "Ffml.dtd">
<ffml version="1.0">
<forcefield name="6-azidomethyl-5-(4-chlorophenyl)pyrimidine-2,4-diamine-MMFF" derivedFrom="MMFF" base="MMFF">
<atomTypes>
<atomType
 name="N100"
 element="N"
 mass="14.007"
 annotation=""/>
<atomType
 name="C101"
 element="C"
 mass="12.011"
 annotation=""/>
<atomType
 name="Cl102"
 element="Cl"
 mass="35.453"
 annotation=""/>
<atomType
 name="H103"
 element="H"
 mass="1.008"
 annotation=""/>
</atomTypes>
<parameters>
</parameters>
</forcefield>
</ffml>

$$$$
5e Tropak et al., 2015
  SciTegic07212313593D

 29 30  0  0  0  0            999 V2000
   23.9483  -17.3635    0.0002 C   0  0
   24.0318  -18.6304    0.0002 N   0  0
   25.2485  -19.2878   -0.0001 C   0  0
   26.3392  -18.6425   -0.0001 N   0  0
   26.3844  -17.2451   -0.0002 C   0  0
   25.2398  -16.5248    0.0001 C   0  0
   25.2773  -14.9438    0.0001 C   0  0
   26.4454  -14.2936   -0.0001 C   0  0
   26.5168  -12.8305    0.0000 C   0  0
   25.4022  -12.1082    0.0002 C   0  0
   24.1141  -12.7774    0.0004 C   0  0
   24.0531  -14.1070    0.0004 C   0  0
   25.4838  -10.3823    0.0002 Cl  0  0
   22.5474  -16.8034    0.0004 C   0  0
   27.6565  -16.6650   -0.0003 N   0  0
   25.2751  -20.6829   -0.0001 N   0  0
   21.5806  -17.9089    0.0005 N   0  0
   27.3713  -14.8688   -0.0002 H   0  0
   27.4868  -12.3334   -0.0002 H   0  0
   23.1957  -12.1903    0.0006 H   0  0
   23.0777  -14.5936    0.0006 H   0  0
   22.4005  -16.1918    0.8906 H   0  0
   22.4002  -16.1917   -0.8897 H   0  0
   28.5278  -17.2862   -0.0003 H   0  0
   27.7589  -15.5999   -0.0003 H   0  0
   24.3588  -21.2354    0.0000 H   0  0
   26.2117  -21.2001   -0.0003 H   0  0
   21.7252  -18.5097    0.8741 H   0  0
   21.7249  -18.5097   -0.8730 H   0  0
  1  2  2  0
  2  3  1  0
  3  4  2  0
  4  5  1  0
  5  6  2  0
  6  1  1  0
  6  7  1  0
  7  8  2  0
  8  9  1  0
  9 10  2  0
 10 11  1  0
 11 12  2  0
 12  7  1  0
 10 13  1  0
  1 14  1  0
  5 15  1  0
  3 16  1  0
 14 17  1  0
  8 18  1  0
  9 19  1  0
 11 20  1  0
 12 21  1  0
 14 22  1  0
 14 23  1  0
 15 24  1  0
 15 25  1  0
 16 26  1  0
 16 27  1  0
 17 28  1  0
 17 29  1  0
M  END
> <Name>
5e Tropak et al., 2015

> <Clean Energy>
8.13140678405762

> <Reference>
Tropak et al., 2015

> <Forcefield>
MMFF

> <ForcefieldBase>
MMFF

> <ForcefieldFFML>
<?xml version="1.0" encoding="UTF-8"?>
<!DOCTYPE ffml SYSTEM "Ffml.dtd">
<ffml version="1.0">
<forcefield name="5e Tropak et al., 2015-MMFF" derivedFrom="MMFF" base="MMFF">
<atomTypes>
<atomType
 name="C100"
 element="C"
 mass="12.011"
 annotation=""/>
<atomType
 name="N101"
 element="N"
 mass="14.007"
 annotation=""/>
<atomType
 name="Cl102"
 element="Cl"
 mass="35.453"
 annotation=""/>
<atomType
 name="H103"
 element="H"
 mass="1.008"
 annotation=""/>
</atomTypes>
<parameters>
</parameters>
</forcefield>
</ffml>

$$$$
5f Tropak et al., 2015
  SciTegic07212313593D

 34 35  0  0  0  0            999 V2000
   23.8871  -16.9864    0.0002 C   0  0
   23.9770  -18.2532   -0.0009 N   0  0
   25.1972  -18.9056    0.0000 C   0  0
   26.2851  -18.2557   -0.0007 N   0  0
   26.3243  -16.8581    0.0010 C   0  0
   25.1768  -16.1426   -0.0009 C   0  0
   25.2079  -14.5615    0.0007 C   0  0
   26.3724  -13.9046    0.0003 C   0  0
   26.4362  -12.4399    0.0007 C   0  0
   25.3193  -11.7206    0.0007 C   0  0
   24.0322  -12.4037    0.0007 C   0  0
   23.9806  -13.7332    0.0003 C   0  0
   22.4814  -16.4272   -0.0004 C   0  0
   27.5938  -16.2723    0.0001 N   0  0
   25.2292  -20.3004   -0.0006 N   0  0
   21.4590  -17.5781   -0.0006 C   0  0
   25.3921  -10.3194    0.0010 O   0  0
   24.0810   -9.7352    0.0010 C   0  0
   27.3014  -14.4746   -0.0002 H   0  0
   27.4043  -11.9389    0.0009 H   0  0
   23.1092  -11.8239    0.0010 H   0  0
   23.0084  -14.2260   -0.0003 H   0  0
   22.3359  -15.8150    0.8897 H   0  0
   22.3366  -15.8151   -0.8906 H   0  0
   28.4678  -16.8896   -0.0018 H   0  0
   27.6914  -15.2068    0.0013 H   0  0
   24.3150  -20.8565   -0.0017 H   0  0
   26.1678  -20.8140    0.0001 H   0  0
   20.4492  -17.1677   -0.0011 H   0  0
   21.6010  -18.1912    0.8893 H   0  0
   21.6017  -18.1913   -0.8904 H   0  0
   24.1668   -8.6487    0.0013 H   0  0
   23.5395  -10.0566    0.8908 H   0  0
   23.5396  -10.0562   -0.8889 H   0  0
  1  2  2  0
  2  3  1  0
  3  4  2  0
  4  5  1  0
  5  6  2  0
  6  1  1  0
  6  7  1  0
  7  8  2  0
  8  9  1  0
  9 10  2  0
 10 11  1  0
 11 12  2  0
 12  7  1  0
  1 13  1  0
  5 14  1  0
  3 15  1  0
 13 16  1  0
 10 17  1  0
 17 18  1  0
  8 19  1  0
  9 20  1  0
 11 21  1  0
 12 22  1  0
 13 23  1  0
 13 24  1  0
 14 25  1  0
 14 26  1  0
 15 27  1  0
 15 28  1  0
 16 29  1  0
 16 30  1  0
 16 31  1  0
 18 32  1  0
 18 33  1  0
 18 34  1  0
M  END
> <Name>
5f Tropak et al., 2015

> <Clean Energy>
8.03215503692627

> <Reference>
Tropak et al., 2015

> <Forcefield>
MMFF

> <ForcefieldBase>
MMFF

> <ForcefieldFFML>
<?xml version="1.0" encoding="UTF-8"?>
<!DOCTYPE ffml SYSTEM "Ffml.dtd">
<ffml version="1.0">
<forcefield name="5f Tropak et al., 2015-MMFF" derivedFrom="MMFF" base="MMFF">
<atomTypes>
<atomType
 name="C100"
 element="C"
 mass="12.011"
 annotation=""/>
<atomType
 name="N101"
 element="N"
 mass="14.007"
 annotation=""/>
<atomType
 name="O102"
 element="O"
 mass="16"
 annotation=""/>
<atomType
 name="H103"
 element="H"
 mass="1.008"
 annotation=""/>
</atomTypes>
<parameters>
</parameters>
</forcefield>
</ffml>

$$$$
5gTropak et al., 2015
  SciTegic07212313593D

 33 34  0  0  0  0            999 V2000
   25.3870   -9.6907    0.0667 C   0  0
   26.2928   -9.2723    1.0183 F   0  0
   25.8529   -9.2423   -1.1507 F   0  0
   24.1262   -9.1827    0.3044 F   0  0
   23.9863  -16.4555   -0.0234 C   0  0
   24.0876  -17.7212   -0.0344 N   0  0
   25.3134  -18.3625   -0.0444 C   0  0
   26.3957  -17.7030   -0.0477 N   0  0
   26.4226  -16.3049   -0.0352 C   0  0
   25.2689  -15.6001   -0.0255 C   0  0
   25.2850  -14.0195   -0.0069 C   0  0
   26.4421  -13.3490   -0.0030 C   0  0
   26.4846  -11.8836    0.0201 C   0  0
   25.3545  -11.1855    0.0374 C   0  0
   24.0838  -11.8773    0.0314 C   0  0
   24.0487  -13.2059    0.0099 C   0  0
   22.5750  -15.9093   -0.0129 C   0  0
   27.6866  -15.7071   -0.0383 N   0  0
   25.3573  -19.7568   -0.0539 N   0  0
   21.5625  -17.0686   -0.0120 C   0  0
   27.3785  -13.9067   -0.0174 H   0  0
   27.4441  -11.3665    0.0231 H   0  0
   23.1541  -11.3084    0.0444 H   0  0
   23.0824  -13.7103    0.0045 H   0  0
   22.4295  -15.3023    0.8807 H   0  0
   22.4192  -15.2948   -0.8995 H   0  0
   28.5663  -16.3160   -0.0497 H   0  0
   27.7740  -14.6408   -0.0292 H   0  0
   24.4480  -20.3208   -0.0535 H   0  0
   26.3004  -20.2623   -0.0616 H   0  0
   20.5493  -16.6668   -0.0044 H   0  0
   21.7152  -17.6844    0.8744 H   0  0
   21.7049  -17.6768   -0.9053 H   0  0
  1  2  1  0
  1  3  1  0
  1  4  1  0
  5  6  2  0
  6  7  1  0
  7  8  2  0
  8  9  1  0
  9 10  2  0
 10  5  1  0
 10 11  1  0
 11 12  2  0
 12 13  1  0
 13 14  2  0
 14 15  1  0
 15 16  2  0
 16 11  1  0
  5 17  1  0
  9 18  1  0
  7 19  1  0
 17 20  1  0
 12 21  1  0
 13 22  1  0
 15 23  1  0
 16 24  1  0
 17 25  1  0
 17 26  1  0
 18 27  1  0
 18 28  1  0
 19 29  1  0
 19 30  1  0
 20 31  1  0
 20 32  1  0
 20 33  1  0
 14  1  1  0
M  END
> <Name>
5gTropak et al., 2015

> <Clean Energy>
19.796236038208

> <Reference>
Tropak et al., 2015

> <Forcefield>
MMFF

> <ForcefieldBase>
MMFF

> <ForcefieldFFML>
<?xml version="1.0" encoding="UTF-8"?>
<!DOCTYPE ffml SYSTEM "Ffml.dtd">
<ffml version="1.0">
<forcefield name="5gTropak et al., 2015-MMFF" derivedFrom="MMFF" base="MMFF">
<atomTypes>
<atomType
 name="C100"
 element="C"
 mass="12.011"
 annotation=""/>
<atomType
 name="F101"
 element="F"
 mass="18.998"
 annotation=""/>
<atomType
 name="N102"
 element="N"
 mass="14.007"
 annotation=""/>
<atomType
 name="H103"
 element="H"
 mass="1.008"
 annotation=""/>
</atomTypes>
<parameters>
</parameters>
</forcefield>
</ffml>

$$$$
5h Tropak et al., 2015
  SciTegic07212313593D

 30 31  0  0  0  0            999 V2000
   23.9389  -17.6816   -0.0002 C   0  0
   24.0116  -18.9497   -0.0005 N   0  0
   25.2233  -19.6187   -0.0003 C   0  0
   26.3195  -18.9832   -0.0002 N   0  0
   26.3770  -17.5869    0.0001 C   0  0
   25.2392  -16.8557   -0.0001 C   0  0
   25.2931  -15.2747    0.0003 C   0  0
   26.4682  -14.6377    0.0004 C   0  0
   26.5571  -13.1758    0.0006 C   0  0
   25.4522  -12.4388    0.0007 C   0  0
   24.1559  -13.0944    0.0006 C   0  0
   24.0788  -14.4236    0.0004 C   0  0
   22.5419  -17.1029   -0.0003 C   0  0
   27.6547  -17.0193    0.0002 N   0  0
   25.2375  -21.0138   -0.0006 N   0  0
   21.5044  -18.2409   -0.0006 C   0  0
   27.3874  -15.2236    0.0002 H   0  0
   27.5334  -12.6911    0.0007 H   0  0
   25.5176  -11.3508    0.0009 H   0  0
   23.2443  -12.4969    0.0007 H   0  0
   23.0977  -14.8984    0.0003 H   0  0
   22.4048  -16.4890    0.8899 H   0  0
   22.4051  -16.4888   -0.8904 H   0  0
   28.5198  -17.6489    0.0001 H   0  0
   27.7674  -15.9552    0.0005 H   0  0
   24.3163  -21.5583   -0.0009 H   0  0
   26.1695  -21.5394   -0.0005 H   0  0
   20.5000  -17.8175   -0.0007 H   0  0
   21.6387  -18.8559    0.8892 H   0  0
   21.6390  -18.8557   -0.8905 H   0  0
  1  2  2  0
  2  3  1  0
  3  4  2  0
  4  5  1  0
  5  6  2  0
  6  1  1  0
  6  7  1  0
  7  8  2  0
  8  9  1  0
  9 10  2  0
 10 11  1  0
 11 12  2  0
 12  7  1  0
  1 13  1  0
  5 14  1  0
  3 15  1  0
 13 16  1  0
  8 17  1  0
  9 18  1  0
 10 19  1  0
 11 20  1  0
 12 21  1  0
 13 22  1  0
 13 23  1  0
 14 24  1  0
 14 25  1  0
 15 26  1  0
 15 27  1  0
 16 28  1  0
 16 29  1  0
 16 30  1  0
M  END
> <Name>
5h Tropak et al., 2015

> <Clean Energy>
8.07055377960205

> <Reference>
Tropak et al., 2015

> <Forcefield>
MMFF

> <ForcefieldBase>
MMFF

> <ForcefieldFFML>
<?xml version="1.0" encoding="UTF-8"?>
<!DOCTYPE ffml SYSTEM "Ffml.dtd">
<ffml version="1.0">
<forcefield name="5h Tropak et al., 2015-MMFF" derivedFrom="MMFF" base="MMFF">
<atomTypes>
<atomType
 name="C100"
 element="C"
 mass="12.011"
 annotation=""/>
<atomType
 name="N101"
 element="N"
 mass="14.007"
 annotation=""/>
<atomType
 name="H102"
 element="H"
 mass="1.008"
 annotation=""/>
</atomTypes>
<parameters>
</parameters>
</forcefield>
</ffml>

$$$$
5i Tropak et al., 2015
  SciTegic07212313593D

 33 34  0  0  0  0            999 V2000
   23.9500  -17.3478   -0.0003 C   0  0
   24.0344  -18.6152   -0.0004 N   0  0
   25.2520  -19.2730   -0.0004 C   0  0
   26.3424  -18.6276   -0.0002 N   0  0
   26.3873  -17.2305    0.0000 C   0  0
   25.2428  -16.5099    0.0001 C   0  0
   25.2816  -14.9285    0.0003 C   0  0
   26.4504  -14.2796    0.0004 C   0  0
   26.5238  -12.8168    0.0007 C   0  0
   25.4102  -12.0931    0.0008 C   0  0
   24.1213  -12.7604    0.0007 C   0  0
   24.0585  -14.0900    0.0005 C   0  0
   22.5475  -16.7821   -0.0003 C   0  0
   27.6596  -16.6509    0.0003 N   0  0
   25.2786  -20.6680   -0.0006 N   0  0
   21.5203  -17.9292   -0.0006 C   0  0
   25.4834  -10.5943    0.0011 C   0  0
   27.3757  -14.8559    0.0004 H   0  0
   27.4945  -12.3210    0.0007 H   0  0
   23.2037  -12.1721    0.0008 H   0  0
   23.0825  -14.5752    0.0004 H   0  0
   22.4049  -16.1695    0.8899 H   0  0
   22.4051  -16.1692   -0.8904 H   0  0
   28.5306  -17.2724    0.0004 H   0  0
   27.7623  -15.5859    0.0004 H   0  0
   24.3624  -21.2206   -0.0008 H   0  0
   26.2153  -21.1852   -0.0007 H   0  0
   20.5122  -17.5148   -0.0007 H   0  0
   21.6602  -18.5431    0.8892 H   0  0
   21.6604  -18.5428   -0.8906 H   0  0
   24.4750  -10.1808    0.0011 H   0  0
   26.0143  -10.2558   -0.8888 H   0  0
   26.0143  -10.2561    0.8910 H   0  0
  1  2  2  0
  2  3  1  0
  3  4  2  0
  4  5  1  0
  5  6  2  0
  6  1  1  0
  6  7  1  0
  7  8  2  0
  8  9  1  0
  9 10  2  0
 10 11  1  0
 11 12  2  0
 12  7  1  0
  1 13  1  0
  5 14  1  0
  3 15  1  0
 13 16  1  0
 10 17  1  0
  8 18  1  0
  9 19  1  0
 11 20  1  0
 12 21  1  0
 13 22  1  0
 13 23  1  0
 14 24  1  0
 14 25  1  0
 15 26  1  0
 15 27  1  0
 16 28  1  0
 16 29  1  0
 16 30  1  0
 17 31  1  0
 17 32  1  0
 17 33  1  0
M  END
> <Name>
5i Tropak et al., 2015

> <Clean Energy>
7.83057737350464

> <Reference>
Tropak et al., 2015

> <Forcefield>
MMFF

> <ForcefieldBase>
MMFF

> <ForcefieldFFML>
<?xml version="1.0" encoding="UTF-8"?>
<!DOCTYPE ffml SYSTEM "Ffml.dtd">
<ffml version="1.0">
<forcefield name="5i Tropak et al., 2015-MMFF" derivedFrom="MMFF" base="MMFF">
<atomTypes>
<atomType
 name="C100"
 element="C"
 mass="12.011"
 annotation=""/>
<atomType
 name="N101"
 element="N"
 mass="14.007"
 annotation=""/>
<atomType
 name="H102"
 element="H"
 mass="1.008"
 annotation=""/>
</atomTypes>
<parameters>
</parameters>
</forcefield>
</ffml>

$$$$
5j Tropak et al., 2015
  SciTegic07212313593D

 33 34  0  0  0  0            999 V2000
   24.1081  -17.4268   -0.0003 C   0  0
   24.1858  -18.6946   -0.0005 N   0  0
   25.4001  -19.3588   -0.0004 C   0  0
   26.4938  -18.7190   -0.0002 N   0  0
   26.5459  -17.3223    0.0001 C   0  0
   25.4051  -16.5957    0.0000 C   0  0
   25.4526  -15.0149    0.0003 C   0  0
   26.6250  -14.3735    0.0005 C   0  0
   26.7087  -12.9118    0.0007 C   0  0
   25.6009  -12.1791    0.0008 C   0  0
   24.3073  -12.8393    0.0006 C   0  0
   24.2352  -14.1687    0.0004 C   0  0
   22.7088  -16.8535   -0.0004 C   0  0
   27.8214  -16.7495    0.0004 N   0  0
   25.4197  -20.7539   -0.0006 N   0  0
   21.6756  -17.9954   -0.0007 C   0  0
   28.0501  -12.2401    0.0009 C   0  0
   27.5463  -14.9559    0.0004 H   0  0
   25.6621  -11.0909    0.0010 H   0  0
   23.3935  -12.2451    0.0007 H   0  0
   23.2559  -14.6473    0.0003 H   0  0
   22.5693  -16.2402    0.8898 H   0  0
   22.5696  -16.2399   -0.8904 H   0  0
   28.6891  -17.3756    0.0004 H   0  0
   27.9299  -15.6850    0.0006 H   0  0
   24.5007  -21.3019   -0.0009 H   0  0
   26.3538  -21.2758   -0.0006 H   0  0
   20.6696  -17.5759   -0.0008 H   0  0
   21.8123  -18.6100    0.8891 H   0  0
   21.8126  -18.6098   -0.8906 H   0  0
   27.9154  -11.1585    0.0011 H   0  0
   28.6055  -12.5364   -0.8890 H   0  0
   28.6054  -12.5367    0.8908 H   0  0
  1  2  2  0
  2  3  1  0
  3  4  2  0
  4  5  1  0
  5  6  2  0
  6  1  1  0
  6  7  1  0
  7  8  2  0
  8  9  1  0
  9 10  2  0
 10 11  1  0
 11 12  2  0
 12  7  1  0
  1 13  1  0
  5 14  1  0
  3 15  1  0
 13 16  1  0
  9 17  1  0
  8 18  1  0
 10 19  1  0
 11 20  1  0
 12 21  1  0
 13 22  1  0
 13 23  1  0
 14 24  1  0
 14 25  1  0
 15 26  1  0
 15 27  1  0
 16 28  1  0
 16 29  1  0
 16 30  1  0
 17 31  1  0
 17 32  1  0
 17 33  1  0
M  END
> <Name>
5j Tropak et al., 2015

> <Clean Energy>
7.69569492340088

> <Reference>
Tropak et al., 2015

> <Forcefield>
MMFF

> <ForcefieldBase>
MMFF

> <ForcefieldFFML>
<?xml version="1.0" encoding="UTF-8"?>
<!DOCTYPE ffml SYSTEM "Ffml.dtd">
<ffml version="1.0">
<forcefield name="5j Tropak et al., 2015-MMFF" derivedFrom="MMFF" base="MMFF">
<atomTypes>
<atomType
 name="C100"
 element="C"
 mass="12.011"
 annotation=""/>
<atomType
 name="N101"
 element="N"
 mass="14.007"
 annotation=""/>
<atomType
 name="H102"
 element="H"
 mass="1.008"
 annotation=""/>
</atomTypes>
<parameters>
</parameters>
</forcefield>
</ffml>

$$$$
5kTropak et al., 2015
  SciTegic07212313593D

 33 34  0  0  0  0            999 V2000
   24.1479  -17.6117    0.0007 C   0  0
   24.1160  -18.8800    0.0001 N   0  0
   25.2400  -19.6461   -0.0012 C   0  0
   26.3816  -19.1134   -0.0022 N   0  0
   26.5897  -17.7314   -0.0018 C   0  0
   25.5433  -16.8539   -0.0003 C   0  0
   25.6487  -15.1658    0.0002 C   0  0
   26.7579  -14.3446    0.0030 C   0  0
   26.5986  -12.8754    0.0029 C   0  0
   25.4162  -12.2861    0.0003 C   0  0
   24.2509  -13.0927   -0.0026 C   0  0
   24.3608  -14.4148   -0.0027 C   0  0
   22.7710  -16.9744    0.0024 C   0  0
   27.8998  -17.3890   -0.0035 N   0  0
   25.1271  -21.0367   -0.0016 N   0  0
   21.6834  -18.0656    0.0013 C   0  0
   28.1898  -14.7424    0.0069 C   0  0
   27.4931  -12.2525    0.0052 H   0  0
   25.3382  -11.1989    0.0003 H   0  0
   23.2653  -12.6273   -0.0048 H   0  0
   23.4390  -14.9965   -0.0052 H   0  0
   22.6608  -16.3564    0.8935 H   0  0
   22.6598  -16.3538   -0.8868 H   0  0
   28.6518  -18.1502   -0.0049 H   0  0
   28.1831  -16.3572   -0.0034 H   0  0
   24.1603  -21.4950   -0.0009 H   0  0
   26.0075  -21.6449   -0.0027 H   0  0
   20.6988  -17.5980    0.0026 H   0  0
   21.7908  -18.6873    0.8902 H   0  0
   21.7899  -18.6846   -0.8895 H   0  0
   28.8154  -13.8498    0.0084 H   0  0
   28.4052  -15.3349   -0.8823 H   0  0
   28.4005  -15.3346    0.8974 H   0  0
  1  2  2  0
  2  3  1  0
  3  4  2  0
  4  5  1  0
  5  6  2  0
  6  1  1  0
  6  7  1  0
  7  8  2  0
  8  9  1  0
  9 10  2  0
 10 11  1  0
 11 12  2  0
 12  7  1  0
  1 13  1  0
  5 14  1  0
  3 15  1  0
 13 16  1  0
  8 17  1  0
  9 18  1  0
 10 19  1  0
 11 20  1  0
 12 21  1  0
 13 22  1  0
 13 23  1  0
 14 24  1  0
 14 25  1  0
 15 26  1  0
 15 27  1  0
 16 28  1  0
 16 29  1  0
 16 30  1  0
 17 31  1  0
 17 32  1  0
 17 33  1  0
M  END
> <Name>
5kTropak et al., 2015

> <Clean Energy>
28.6105346679688

> <Reference>
Tropak et al., 2015

> <Forcefield>
MMFF

> <ForcefieldBase>
MMFF

> <ForcefieldFFML>
<?xml version="1.0" encoding="UTF-8"?>
<!DOCTYPE ffml SYSTEM "Ffml.dtd">
<ffml version="1.0">
<forcefield name="5kTropak et al., 2015-MMFF" derivedFrom="MMFF" base="MMFF">
<atomTypes>
<atomType
 name="C100"
 element="C"
 mass="12.011"
 annotation=""/>
<atomType
 name="N101"
 element="N"
 mass="14.007"
 annotation=""/>
<atomType
 name="H102"
 element="H"
 mass="1.008"
 annotation=""/>
</atomTypes>
<parameters>
</parameters>
</forcefield>
</ffml>

$$$$
5l Tropak et al., 2015
  SciTegic07212313593D

 36 37  0  0  0  0            999 V2000
   23.9646  -17.2140   -0.0003 C   0  0
   24.0486  -18.4813   -0.0004 N   0  0
   25.2660  -19.1394   -0.0005 C   0  0
   26.3568  -18.4944   -0.0001 N   0  0
   26.4022  -17.0972   -0.0001 C   0  0
   25.2580  -16.3764    0.0001 C   0  0
   25.2970  -14.7960    0.0003 C   0  0
   26.4649  -14.1462    0.0004 C   0  0
   26.5366  -12.6832    0.0006 C   0  0
   25.4229  -11.9597    0.0008 C   0  0
   24.1355  -12.6305    0.0008 C   0  0
   24.0749  -13.9597    0.0006 C   0  0
   22.5617  -16.6480   -0.0003 C   0  0
   27.6747  -16.5175    0.0003 N   0  0
   25.2920  -20.5344   -0.0006 N   0  0
   21.5341  -17.7947   -0.0006 C   0  0
   22.8702  -11.8251    0.0010 C   0  0
   27.8720  -11.9998    0.0006 C   0  0
   27.3907  -14.7216    0.0003 H   0  0
   25.4751  -10.8709    0.0010 H   0  0
   23.0995  -14.4462    0.0006 H   0  0
   22.4192  -16.0354    0.8899 H   0  0
   22.4194  -16.0351   -0.8903 H   0  0
   28.5457  -17.1390    0.0005 H   0  0
   27.7774  -15.4525    0.0004 H   0  0
   24.3755  -21.0866   -0.0007 H   0  0
   26.2285  -21.0521   -0.0007 H   0  0
   20.5261  -17.3799   -0.0006 H   0  0
   21.6738  -18.4086    0.8892 H   0  0
   21.6739  -18.4083   -0.8906 H   0  0
   22.0116  -12.4964    0.0010 H   0  0
   22.8391  -11.1961   -0.8887 H   0  0
   22.8392  -11.1965    0.8910 H   0  0
   27.7279  -10.9194    0.0008 H   0  0
   28.4299  -12.2912   -0.8893 H   0  0
   28.4300  -12.2915    0.8904 H   0  0
  1  2  2  0
  2  3  1  0
  3  4  2  0
  4  5  1  0
  5  6  2  0
  6  1  1  0
  6  7  1  0
  7  8  2  0
  8  9  1  0
  9 10  2  0
 10 11  1  0
 11 12  2  0
 12  7  1  0
  1 13  1  0
  5 14  1  0
  3 15  1  0
 13 16  1  0
 11 17  1  0
  9 18  1  0
  8 19  1  0
 10 20  1  0
 12 21  1  0
 13 22  1  0
 13 23  1  0
 14 24  1  0
 14 25  1  0
 15 26  1  0
 15 27  1  0
 16 28  1  0
 16 29  1  0
 16 30  1  0
 17 31  1  0
 17 32  1  0
 17 33  1  0
 18 34  1  0
 18 35  1  0
 18 36  1  0
M  END
> <Name>
5l Tropak et al., 2015

> <Clean Energy>
7.23141098022461

> <Reference>
Tropak et al., 2015

> <Forcefield>
MMFF

> <ForcefieldBase>
MMFF

> <ForcefieldFFML>
<?xml version="1.0" encoding="UTF-8"?>
<!DOCTYPE ffml SYSTEM "Ffml.dtd">
<ffml version="1.0">
<forcefield name="5l Tropak et al., 2015-MMFF" derivedFrom="MMFF" base="MMFF">
<atomTypes>
<atomType
 name="C100"
 element="C"
 mass="12.011"
 annotation=""/>
<atomType
 name="N101"
 element="N"
 mass="14.007"
 annotation=""/>
<atomType
 name="H102"
 element="H"
 mass="1.008"
 annotation=""/>
</atomTypes>
<parameters>
</parameters>
</forcefield>
</ffml>

$$$$
6 Tropak et al., 2015
  SciTegic07212313593D

 29 30  0  0  0  0            999 V2000
   24.0130  -17.2866   -0.0003 C   0  0
   24.1281  -18.6916   -0.0004 N   0  0
   25.2415  -19.3004   -0.0004 C   0  0
   26.4282  -18.6022   -0.0002 N   0  0
   26.4368  -17.2792    0.0000 C   0  0
   25.1388  -16.5171    0.0001 C   0  0
   25.1924  -14.9362    0.0003 C   0  0
   26.3829  -14.3292    0.0004 C   0  0
   26.5066  -12.8688    0.0007 C   0  0
   25.4193  -12.1054    0.0008 C   0  0
   24.1063  -12.7250    0.0007 C   0  0
   23.9946  -14.0512    0.0004 C   0  0
   22.5914  -16.7664   -0.0003 C   0  0
   27.5348  -16.7128    0.0003 O   0  0
   25.2625  -20.6956   -0.0007 N   0  0
   21.6016  -17.9455   -0.0006 C   0  0
   25.5655  -10.3837    0.0011 Cl  0  0
   27.3553  -19.1364   -0.0001 H   0  0
   27.2875  -14.9374    0.0004 H   0  0
   27.4941  -12.4074    0.0008 H   0  0
   23.2110  -12.1033    0.0008 H   0  0
   23.0016  -14.5008    0.0004 H   0  0
   22.4290  -16.1588    0.8899 H   0  0
   22.4292  -16.1584   -0.8903 H   0  0
   24.3440  -21.2445   -0.0008 H   0  0
   26.1971  -21.2166   -0.0007 H   0  0
   20.5807  -17.5637   -0.0006 H   0  0
   21.7611  -18.5547    0.8891 H   0  0
   21.7612  -18.5543   -0.8906 H   0  0
  1  2  1  0
  2  3  2  0
  3  4  1  0
  4  5  1  0
  5  6  1  0
  6  1  2  0
  6  7  1  0
  7  8  2  0
  8  9  1  0
  9 10  2  0
 10 11  1  0
 11 12  2  0
 12  7  1  0
  1 13  1  0
  5 14  2  0
  3 15  1  0
 13 16  1  0
 10 17  1  0
  4 18  1  0
  8 19  1  0
  9 20  1  0
 11 21  1  0
 12 22  1  0
 13 23  1  0
 13 24  1  0
 15 25  1  0
 15 26  1  0
 16 27  1  0
 16 28  1  0
 16 29  1  0
M  END
> <Name>
6 Tropak et al., 2015

> <Clean Energy>
8.32167434692383

> <Reference>
Tropak et al., 2015

> <Forcefield>
MMFF

> <ForcefieldBase>
MMFF

> <ForcefieldFFML>
<?xml version="1.0" encoding="UTF-8"?>
<!DOCTYPE ffml SYSTEM "Ffml.dtd">
<ffml version="1.0">
<forcefield name="6 Tropak et al., 2015-MMFF" derivedFrom="MMFF" base="MMFF">
<atomTypes>
<atomType
 name="C100"
 element="C"
 mass="12.011"
 annotation=""/>
<atomType
 name="N101"
 element="N"
 mass="14.007"
 annotation=""/>
<atomType
 name="O102"
 element="O"
 mass="16"
 annotation=""/>
<atomType
 name="Cl103"
 element="Cl"
 mass="35.453"
 annotation=""/>
<atomType
 name="H104"
 element="H"
 mass="1.008"
 annotation=""/>
</atomTypes>
<parameters>
</parameters>
</forcefield>
</ffml>

$$$$
7 Tropak et al., 2015
  SciTegic07212313593D

 32 33  0  0  0  0            999 V2000
   24.0549  -16.2355   -0.0152 C   0  0
   24.1927  -17.6370   -0.0217 N   0  0
   25.3155  -18.2277   -0.0219 C   0  0
   26.4914  -17.5099   -0.0158 N   0  0
   26.4782  -16.1864   -0.0094 C   0  0
   25.1683  -15.4469   -0.0083 C   0  0
   25.1930  -13.8652    0.0016 C   0  0
   26.3693  -13.2297    0.0165 C   0  0
   26.4534  -11.7635    0.0296 C   0  0
   25.3438  -11.0316    0.0268 C   0  0
   24.0533  -11.6841    0.0096 C   0  0
   23.9770  -13.0105   -0.0021 C   0  0
   22.6230  -15.7406   -0.0147 C   0  0
   27.5659  -15.6004   -0.0047 O   0  0
   25.3577  -19.6223   -0.0281 N   0  0
   21.6528  -16.9350   -0.0185 C   0  0
   25.4166   -9.5371    0.0422 C   0  0
   24.2877   -9.0167    0.6415 F   0  0
   26.5764   -9.1174    0.6582 F   0  0
   25.4426   -9.1003   -1.2654 F   0  0
   27.4272  -18.0288   -0.0163 H   0  0
   27.2891  -13.8146    0.0190 H   0  0
   27.4276  -11.2746    0.0416 H   0  0
   23.1416  -11.0867    0.0062 H   0  0
   22.9957  -13.4849   -0.0148 H   0  0
   22.4499  -15.1381    0.8769 H   0  0
   22.4510  -15.1333   -0.9034 H   0  0
   24.4476  -20.1851   -0.0326 H   0  0
   26.3001  -20.1290   -0.0282 H   0  0
   20.6259  -16.5695   -0.0181 H   0  0
   21.8216  -17.5437    0.8699 H   0  0
   21.8226  -17.5389   -0.9099 H   0  0
  1  2  1  0
  2  3  2  0
  3  4  1  0
  4  5  1  0
  5  6  1  0
  6  1  2  0
  6  7  1  0
  7  8  2  0
  8  9  1  0
  9 10  2  0
 10 11  1  0
 11 12  2  0
 12  7  1  0
  1 13  1  0
  5 14  2  0
  3 15  1  0
 13 16  1  0
 10 17  1  0
 17 18  1  0
 17 19  1  0
 17 20  1  0
  4 21  1  0
  8 22  1  0
  9 23  1  0
 11 24  1  0
 12 25  1  0
 13 26  1  0
 13 27  1  0
 15 28  1  0
 15 29  1  0
 16 30  1  0
 16 31  1  0
 16 32  1  0
M  END
> <Name>
7 Tropak et al., 2015

> <Clean Energy>
20.1771945953369

> <Reference>
Tropak et al., 2015

> <Forcefield>
MMFF

> <ForcefieldBase>
MMFF

> <ForcefieldFFML>
<?xml version="1.0" encoding="UTF-8"?>
<!DOCTYPE ffml SYSTEM "Ffml.dtd">
<ffml version="1.0">
<forcefield name="7 Tropak et al., 2015-MMFF" derivedFrom="MMFF" base="MMFF">
<atomTypes>
<atomType
 name="C100"
 element="C"
 mass="12.011"
 annotation=""/>
<atomType
 name="N101"
 element="N"
 mass="14.007"
 annotation=""/>
<atomType
 name="O102"
 element="O"
 mass="16"
 annotation=""/>
<atomType
 name="F103"
 element="F"
 mass="18.998"
 annotation=""/>
<atomType
 name="H104"
 element="H"
 mass="1.008"
 annotation=""/>
</atomTypes>
<parameters>
</parameters>
</forcefield>
</ffml>

$$$$
8 Tropak et al., 2015
  SciTegic07212313593D

 28 29  0  0  0  0            999 V2000
   23.7641  -17.2595    0.0014 C   0  0
   23.9231  -18.6554   -0.0011 N   0  0
   25.0683  -19.2066    0.0004 C   0  0
   26.2270  -18.4377   -0.0004 N   0  0
   26.1641  -17.1702    0.0010 C   0  0
   24.8737  -16.4789   -0.0017 C   0  0
   24.9492  -14.9453    0.0009 C   0  0
   26.1681  -14.4010    0.0002 C   0  0
   26.3460  -12.9440    0.0005 C   0  0
   25.2858  -12.1400    0.0003 C   0  0
   23.9454  -12.7085    0.0003 C   0  0
   23.7816  -14.0290   -0.0001 C   0  0
   22.3376  -16.7540   -0.0008 C   0  0
   25.1620  -20.5992   -0.0001 N   0  0
   21.3617  -17.9438   -0.0009 C   0  0
   25.4957  -10.4246    0.0006 Cl  0  0
   27.0851  -16.5873    0.0041 H   0  0
   27.0448  -15.0486   -0.0005 H   0  0
   27.3498  -12.5193    0.0009 H   0  0
   23.0754  -12.0518    0.0007 H   0  0
   22.7739  -14.4444   -0.0012 H   0  0
   22.1678  -16.1471    0.8885 H   0  0
   22.1699  -16.1488   -0.8918 H   0  0
   24.2734  -21.1952   -0.0018 H   0  0
   26.1225  -21.0708    0.0011 H   0  0
   20.3366  -17.5735   -0.0025 H   0  0
   21.5270  -18.5500    0.8898 H   0  0
   21.5292  -18.5517   -0.8900 H   0  0
  1  2  1  0
  2  3  2  0
  3  4  1  0
  4  5  2  0
  5  6  1  0
  6  1  2  0
  6  7  1  0
  7  8  2  0
  8  9  1  0
  9 10  2  0
 10 11  1  0
 11 12  2  0
 12  7  1  0
  1 13  1  0
  3 14  1  0
 13 15  1  0
 10 16  1  0
  5 17  1  0
  8 18  1  0
  9 19  1  0
 11 20  1  0
 12 21  1  0
 13 22  1  0
 13 23  1  0
 14 24  1  0
 14 25  1  0
 15 26  1  0
 15 27  1  0
 15 28  1  0
M  END
> <Name>
8 Tropak et al., 2015

> <Clean Energy>
5.50286912918091

> <Reference>
Tropak et al., 2015

> <Forcefield>
MMFF

> <ForcefieldBase>
MMFF

> <ForcefieldFFML>
<?xml version="1.0" encoding="UTF-8"?>
<!DOCTYPE ffml SYSTEM "Ffml.dtd">
<ffml version="1.0">
<forcefield name="8 Tropak et al., 2015-MMFF" derivedFrom="MMFF" base="MMFF">
<atomTypes>
<atomType
 name="C100"
 element="C"
 mass="12.011"
 annotation=""/>
<atomType
 name="N101"
 element="N"
 mass="14.007"
 annotation=""/>
<atomType
 name="Cl102"
 element="Cl"
 mass="35.453"
 annotation=""/>
<atomType
 name="H103"
 element="H"
 mass="1.008"
 annotation=""/>
</atomTypes>
<parameters>
</parameters>
</forcefield>
</ffml>

$$$$
9 Tropak et al., 2015
  SciTegic07212313593D

 31 32  0  0  0  0            999 V2000
   24.8042  -15.9337   -0.0208 C   0  0
   24.7225  -17.3289   -0.0306 N   0  0
   25.7685  -18.0533   -0.0338 C   0  0
   27.0454  -17.4802   -0.0282 N   0  0
   27.2167  -16.2200   -0.0197 C   0  0
   25.9852  -15.3234   -0.0152 C   0  0
   25.9684  -13.8011   -0.0015 C   0  0
   27.0708  -13.0506    0.0061 C   0  0
   26.9952  -11.5979    0.0230 C   0  0
   25.8134  -10.9932    0.0318 C   0  0
   24.5868  -11.7902    0.0227 C   0  0
   24.6590  -13.1219    0.0067 C   0  0
   25.6436  -19.4434   -0.0427 N   0  0
   25.7510   -9.4979    0.0523 C   0  0
   28.6498  -15.7244   -0.0139 C   0  0
   29.6184  -16.9193   -0.0149 C   0  0
   24.6858   -9.0801    0.8208 F   0  0
   26.9495   -8.9755    0.4957 F   0  0
   25.5271   -9.0623   -1.2364 F   0  0
   23.8902  -15.3398   -0.0178 H   0  0
   28.0472  -13.5349   -0.0006 H   0  0
   27.9100  -11.0053    0.0286 H   0  0
   23.6151  -11.2965    0.0290 H   0  0
   23.7432  -13.7130   -0.0004 H   0  0
   24.6728  -19.8933   -0.0468 H   0  0
   26.5187  -20.0591   -0.0454 H   0  0
   28.8252  -15.1167   -0.9016 H   0  0
   28.8200  -15.1224    0.8786 H   0  0
   30.6456  -16.5550   -0.0108 H   0  0
   29.4510  -17.5226   -0.9073 H   0  0
   29.4458  -17.5283    0.8725 H   0  0
  1  2  1  0
  2  3  2  0
  3  4  1  0
  4  5  2  0
  5  6  1  0
  6  1  2  0
  6  7  1  0
  7  8  2  0
  8  9  1  0
  9 10  2  0
 10 11  1  0
 11 12  2  0
 12  7  1  0
  3 13  1  0
 10 14  1  0
  5 15  1  0
 15 16  1  0
 14 17  1  0
 14 18  1  0
 14 19  1  0
  1 20  1  0
  8 21  1  0
  9 22  1  0
 11 23  1  0
 12 24  1  0
 13 25  1  0
 13 26  1  0
 15 27  1  0
 15 28  1  0
 16 29  1  0
 16 30  1  0
 16 31  1  0
M  END
> <Name>
9 Tropak et al., 2015

> <Clean Energy>
15.715184211731

> <Reference>
Tropak et al., 2015

> <Forcefield>
MMFF

> <ForcefieldBase>
MMFF

> <ForcefieldFFML>
<?xml version="1.0" encoding="UTF-8"?>
<!DOCTYPE ffml SYSTEM "Ffml.dtd">
<ffml version="1.0">
<forcefield name="9 Tropak et al., 2015-MMFF" derivedFrom="MMFF" base="MMFF">
<atomTypes>
<atomType
 name="C100"
 element="C"
 mass="12.011"
 annotation=""/>
<atomType
 name="N101"
 element="N"
 mass="14.007"
 annotation=""/>
<atomType
 name="F102"
 element="F"
 mass="18.998"
 annotation=""/>
<atomType
 name="H103"
 element="H"
 mass="1.008"
 annotation=""/>
</atomTypes>
<parameters>
</parameters>
</forcefield>
</ffml>

$$$$
10 Tropak et al., 2015
  SciTegic07212313593D

 32 33  0  0  0  0            999 V2000
   24.0117  -16.2369    0.0350 C   0  0
   24.1261  -17.6264    0.0485 N   0  0
   25.3462  -18.2491    0.0488 C   0  0
   26.4968  -17.5024    0.0418 N   0  0
   26.4691  -16.2323    0.0310 C   0  0
   25.1428  -15.4680    0.0247 C   0  0
   25.1787  -13.8799    0.0043 C   0  0
   26.3570  -13.2491   -0.0203 C   0  0
   26.4509  -11.7843   -0.0475 C   0  0
   25.3468  -11.0450   -0.0481 C   0  0
   24.0529  -11.6888   -0.0196 C   0  0
   23.9687  -13.0147    0.0049 C   0  0
   25.4088  -19.4831    0.0586 O   0  0
   25.4303   -9.5515   -0.0811 C   0  0
   24.3576   -9.0405   -0.7829 F   0  0
   26.6386   -9.1435   -0.6051 F   0  0
   25.3338   -9.0916    1.2151 F   0  0
   27.7064  -15.5822    0.0259 N   0  0
   22.5871  -15.7229    0.0301 C   0  0
   21.6030  -16.9057    0.0361 C   0  0
   23.2374  -18.2221    0.0589 H   0  0
   27.2737  -13.8389   -0.0202 H   0  0
   27.4283  -11.3022   -0.0671 H   0  0
   23.1449  -11.0858   -0.0183 H   0  0
   22.9842  -13.4820    0.0260 H   0  0
   28.6110  -16.1536    0.0309 H   0  0
   27.7490  -14.5131    0.0168 H   0  0
   22.4211  -15.1104    0.9163 H   0  0
   22.4233  -15.1213   -0.8640 H   0  0
   20.5805  -16.5283    0.0325 H   0  0
   21.7641  -17.5085    0.9298 H   0  0
   21.7663  -17.5194   -0.8499 H   0  0
  1  2  1  0
  2  3  1  0
  3  4  1  0
  4  5  2  0
  5  6  1  0
  6  1  2  0
  6  7  1  0
  7  8  2  0
  8  9  1  0
  9 10  2  0
 10 11  1  0
 11 12  2  0
 12  7  1  0
  3 13  2  0
 10 14  1  0
 14 15  1  0
 14 16  1  0
 14 17  1  0
  5 18  1  0
  1 19  1  0
 19 20  1  0
  2 21  1  0
  8 22  1  0
  9 23  1  0
 11 24  1  0
 12 25  1  0
 18 26  1  0
 18 27  1  0
 19 28  1  0
 19 29  1  0
 20 30  1  0
 20 31  1  0
 20 32  1  0
M  END
> <Name>
10 Tropak et al., 2015

> <Clean Energy>
21.164831161499

> <Reference>
Tropak et al., 2015

> <Forcefield>
MMFF

> <ForcefieldBase>
MMFF

> <ForcefieldFFML>
<?xml version="1.0" encoding="UTF-8"?>
<!DOCTYPE ffml SYSTEM "Ffml.dtd">
<ffml version="1.0">
<forcefield name="10 Tropak et al., 2015-MMFF" derivedFrom="MMFF" base="MMFF">
<atomTypes>
<atomType
 name="C100"
 element="C"
 mass="12.011"
 annotation=""/>
<atomType
 name="N101"
 element="N"
 mass="14.007"
 annotation=""/>
<atomType
 name="O102"
 element="O"
 mass="16"
 annotation=""/>
<atomType
 name="F103"
 element="F"
 mass="18.998"
 annotation=""/>
<atomType
 name="H104"
 element="H"
 mass="1.008"
 annotation=""/>
</atomTypes>
<parameters>
</parameters>
</forcefield>
</ffml>

$$$$
11 Tropak et al., 2015
  SciTegic07212313593D

 29 30  0  0  0  0            999 V2000
   23.8429  -15.7921    0.0229 C   0  0
   24.0481  -17.1824    0.0471 N   0  0
   25.2122  -17.6926    0.0524 C   0  0
   26.3450  -16.8877    0.0330 N   0  0
   26.2403  -15.6231    0.0105 C   0  0
   24.9273  -14.9750    0.0029 C   0  0
   24.9497  -13.4390   -0.0258 C   0  0
   26.1462  -12.8458   -0.0485 C   0  0
   26.2618  -11.3800   -0.0799 C   0  0
   25.1658  -10.6244   -0.0862 C   0  0
   23.8565  -11.2480   -0.0609 C   0  0
   23.7492  -12.5718   -0.0327 C   0  0
   25.2693   -9.1314   -0.1201 C   0  0
   24.0727   -8.5786   -0.5297 F   0  0
   26.3203   -8.7493   -0.9263 F   0  0
   25.5501   -8.6929    1.1565 F   0  0
   22.3984  -15.3332    0.0182 C   0  0
   21.4579  -16.5502    0.0358 C   0  0
   25.3237  -18.7767    0.0724 H   0  0
   27.1415  -15.0101   -0.0033 H   0  0
   27.0491  -13.4563   -0.0436 H   0  0
   27.2459  -10.9118   -0.0981 H   0  0
   22.9591  -10.6294   -0.0649 H   0  0
   22.7594  -13.0281   -0.0144 H   0  0
   22.2118  -14.7206    0.9003 H   0  0
   22.2099  -14.7449   -0.8799 H   0  0
   20.4224  -16.2099    0.0322 H   0  0
   21.6429  -17.1401    0.9335 H   0  0
   21.6410  -17.1643   -0.8460 H   0  0
  1  2  1  0
  2  3  2  0
  3  4  1  0
  4  5  2  0
  5  6  1  0
  6  1  2  0
  6  7  1  0
  7  8  2  0
  8  9  1  0
  9 10  2  0
 10 11  1  0
 11 12  2  0
 12  7  1  0
 10 13  1  0
 13 14  1  0
 13 15  1  0
 13 16  1  0
  1 17  1  0
 17 18  1  0
  3 19  1  0
  5 20  1  0
  8 21  1  0
  9 22  1  0
 11 23  1  0
 12 24  1  0
 17 25  1  0
 17 26  1  0
 18 27  1  0
 18 28  1  0
 18 29  1  0
M  END
> <Name>
11 Tropak et al., 2015

> <Clean Energy>
17.5948600769043

> <Reference>
Tropak et al., 2015

> <Forcefield>
MMFF

> <ForcefieldBase>
MMFF

> <ForcefieldFFML>
<?xml version="1.0" encoding="UTF-8"?>
<!DOCTYPE ffml SYSTEM "Ffml.dtd">
<ffml version="1.0">
<forcefield name="11 Tropak et al., 2015-MMFF" derivedFrom="MMFF" base="MMFF">
<atomTypes>
<atomType
 name="C100"
 element="C"
 mass="12.011"
 annotation=""/>
<atomType
 name="N101"
 element="N"
 mass="14.007"
 annotation=""/>
<atomType
 name="F102"
 element="F"
 mass="18.998"
 annotation=""/>
<atomType
 name="H103"
 element="H"
 mass="1.008"
 annotation=""/>
</atomTypes>
<parameters>
</parameters>
</forcefield>
</ffml>

$$$$
NTA-glucal
  SciTegic07212313593D

 27 27  0  0  0  0            999 V2000
   28.5950  -14.8885    0.3562 C   0  0  1  0  0  0
   28.6197  -16.2587   -0.3261 C   0  0  1  0  0  0
   29.9175  -16.9524   -0.1000 C   0  0
   31.0083  -16.2309    0.1710 C   0  0
   31.0148  -14.8174    0.2625 O   0  0
   29.8036  -14.1467   -0.1735 C   0  0  2  0  0  0
   29.8415  -12.7070    0.3602 C   0  0
   27.5294  -17.0894    0.0772 O   0  0
   27.3842  -14.2197   -0.0017 O   0  0
   29.9422  -18.3780   -0.1842 N   0  0
   30.9926  -12.0411   -0.1631 O   0  0
   31.0902  -19.2267   -0.0546 C   0  0
   30.8901  -20.7109   -0.1407 C   0  0
   32.5474  -18.6852    0.1479 S   0  0
   28.6618  -15.0011    1.4383 H   0  0
   28.5223  -16.0906   -1.3987 H   0  0
   31.9476  -16.7603    0.3310 H   0  0
   29.7702  -14.1293   -1.2628 H   0  0
   28.9412  -12.1785    0.0469 H   0  0
   29.8936  -12.7233    1.4488 H   0  0
   27.5719  -17.2442    1.1149 H   0  0
   27.3454  -14.0993   -1.0441 H   0  0
   29.0056  -18.8635   -0.3628 H   0  0
   31.8597  -12.5509    0.1383 H   0  0
   31.8496  -21.2148   -0.0243 H   0  0
   30.4623  -20.9647   -1.1106 H   0  0
   30.2128  -21.0332    0.6503 H   0  0
  1  2  1  0
  2  3  1  0
  3  4  2  0
  4  5  1  0
  5  6  1  0
  6  1  1  0
  6  7  1  0
  2  8  1  0
  1  9  1  0
  3 10  1  0
  7 11  1  0
 10 12  1  0
 12 13  1  0
 12 14  2  0
  1 15  1  0
  2 16  1  0
  4 17  1  0
  6 18  1  0
  7 19  1  0
  7 20  1  0
  8 21  1  0
  9 22  1  0
 10 23  1  0
 11 24  1  0
 13 25  1  0
 13 26  1  0
 13 27  1  0
M  END
> <Name>
NTA-glucal

> <Clean Energy>
18.8070545196533

> <Reference>
Liu et al., 2018

> <Forcefield>
MMFF

> <ForcefieldBase>
MMFF

> <ForcefieldFFML>
<?xml version="1.0" encoding="UTF-8"?>
<!DOCTYPE ffml SYSTEM "Ffml.dtd">
<ffml version="1.0">
<forcefield name="NTA-glucal-MMFF" derivedFrom="MMFF" base="MMFF">
<atomTypes>
<atomType
 name="C100"
 element="C"
 mass="12.011"
 annotation=""/>
<atomType
 name="O101"
 element="O"
 mass="16"
 annotation=""/>
<atomType
 name="N102"
 element="N"
 mass="14.007"
 annotation=""/>
<atomType
 name="S103"
 element="S"
 mass="32.066"
 annotation=""/>
<atomType
 name="H104"
 element="H"
 mass="1.008"
 annotation=""/>
</atomTypes>
<parameters>
</parameters>
</forcefield>
</ffml>

$$$$
NMACT
  SciTegic07212313593D

 29 30  0  0  0  0            999 V2000
   19.0821  -16.0338    0.3225 C   0  0  1  0  0  0
   19.1440  -17.4948   -0.1652 C   0  0  1  0  0  0
   20.4210  -18.0860    0.4017 C   0  0  2  0  0  0
   21.6019  -17.2769   -0.0963 C   0  0  1  0  0  0
   21.5567  -15.9171    0.3506 O   0  0
   20.3554  -15.2810   -0.1734 C   0  0  2  0  0  0
   20.3029  -13.8226    0.3093 C   0  0
   21.4641  -13.1295   -0.1515 O   0  0
   17.9105  -15.4026   -0.1965 O   0  0
   18.0049  -18.2251    0.2924 O   0  0
   20.7268  -19.4786    0.0386 N   0  0
   21.9888  -19.7096    0.0708 C   0  0
   22.9314  -18.2781    0.4807 S   0  0
   22.5550  -20.9535   -0.2090 N   0  0
   23.9787  -21.1201   -0.1578 C   0  0
   19.0514  -16.0160    1.4119 H   0  0
   19.1811  -17.5170   -1.2544 H   0  0
   20.3842  -18.0117    1.4885 H   0  0
   21.6009  -17.2886   -1.1862 H   0  0
   20.3837  -15.2993   -1.2629 H   0  0
   19.4097  -13.3400   -0.0875 H   0  0
   20.2746  -13.8009    1.3988 H   0  0
   22.3245  -13.5947    0.2303 H   0  0
   17.9398  -15.4181   -1.2460 H   0  0
   17.9823  -18.2175    1.3422 H   0  0
   21.9276  -21.7827   -0.4615 H   0  0
   24.2335  -22.1509   -0.4038 H   0  0
   24.3364  -20.8873    0.8451 H   0  0
   24.4495  -20.4487   -0.8760 H   0  0
  1  2  1  0
  2  3  1  0
  3  4  1  0
  4  5  1  0
  5  6  1  0
  6  1  1  0
  6  7  1  0
  7  8  1  0
  1  9  1  0
  2 10  1  0
  3 11  1  0
 11 12  2  0
 12 13  1  0
 13  4  1  0
 12 14  1  0
 14 15  1  0
  1 16  1  0
  2 17  1  0
  3 18  1  0
  4 19  1  0
  6 20  1  0
  7 21  1  0
  7 22  1  0
  8 23  1  0
  9 24  1  0
 10 25  1  0
 14 26  1  0
 15 27  1  0
 15 28  1  0
 15 29  1  0
M  END
> <Name>
NMACT

> <Clean Energy>
18.8348121643066

> <Reference>
Liu et al., 2018

> <Forcefield>
MMFF

> <ForcefieldBase>
MMFF

> <ForcefieldFFML>
<?xml version="1.0" encoding="UTF-8"?>
<!DOCTYPE ffml SYSTEM "Ffml.dtd">
<ffml version="1.0">
<forcefield name="NMACT-MMFF" derivedFrom="MMFF" base="MMFF">
<atomTypes>
<atomType
 name="C100"
 element="C"
 mass="12.011"
 annotation=""/>
<atomType
 name="O101"
 element="O"
 mass="16"
 annotation=""/>
<atomType
 name="N102"
 element="N"
 mass="14.007"
 annotation=""/>
<atomType
 name="S103"
 element="S"
 mass="32.066"
 annotation=""/>
<atomType
 name="H104"
 element="H"
 mass="1.008"
 annotation=""/>
</atomTypes>
<parameters>
</parameters>
</forcefield>
</ffml>

$$$$
Q2
  SciTegic07212313593D

 49 52  0  0  0  0            999 V2000
   23.7505  -16.4655   -0.0002 C   0  0
   23.0622  -17.6010    0.0000 C   0  0
   23.7451  -18.9145   -0.0004 C   0  0
   25.0867  -18.9201    0.0005 C   0  0
   25.8319  -17.6687   -0.0002 C   0  0
   25.1956  -16.5024    0.0001 C   0  0
   22.9953  -20.2583    0.0001 C   0  0
   23.7300  -21.3723   -0.0001 C   0  0
   25.1899  -21.3279    0.0003 C   0  0
   25.8321  -20.1646   -0.0001 C   0  0
   27.3067  -20.1436    0.0002 C   0  0
   28.0304  -18.9219    0.0001 N   0  0
   27.2867  -17.6672    0.0001 C   0  0
   21.5337  -20.4563   -0.0002 N   0  0
   20.5437  -19.4019   -0.0003 C   0  0
   21.0377  -21.8059   -0.0001 C   0  0
   27.8339  -16.5606    0.0001 O   0  0
   27.9243  -21.2144    0.0002 O   0  0
   29.5341  -19.0181    0.0001 C   0  0
   30.3017  -17.6620    0.0000 C   0  0
   31.7722  -17.8085   -0.0001 N   0  0
   32.3337  -16.4376    0.0000 C   0  0
   33.8417  -16.4213   -0.0002 C   0  0
   34.5846  -17.4620   -0.0006 N   0  0
   35.9489  -17.1722   -0.0006 N   0  0
   36.2104  -15.9197   -0.0003 C   0  0
   34.7743  -14.9607    0.0002 S   0  0
   37.6003  -15.3478   -0.0002 C   0  0
   23.2278  -15.5091   -0.0006 H   0  0
   21.9727  -17.5653    0.0005 H   0  0
   25.7638  -15.5722    0.0006 H   0  0
   23.2279  -22.3398   -0.0005 H   0  0
   25.7582  -22.2581    0.0008 H   0  0
   19.5457  -19.8399   -0.0005 H   0  0
   20.6694  -18.7850   -0.8902 H   0  0
   20.6690  -18.7850    0.8896 H   0  0
   19.9478  -21.7930   -0.0003 H   0  0
   21.3942  -22.3245    0.8899 H   0  0
   21.3945  -22.3247   -0.8899 H   0  0
   29.8334  -19.5713    0.8903 H   0  0
   29.8334  -19.5715   -0.8900 H   0  0
   30.0121  -17.1036   -0.8901 H   0  0
   30.0122  -17.1035    0.8901 H   0  0
   32.0903  -18.3377   -0.8740 H   0  0
   31.9802  -15.9170   -0.8901 H   0  0
   31.9804  -15.9172    0.8902 H   0  0
   37.5458  -14.2592    0.0001 H   0  0
   38.1321  -15.6841   -0.8902 H   0  0
   38.1323  -15.6847    0.8895 H   0  0
  1  2  2  0
  2  3  1  0
  3  4  2  0
  4  5  1  0
  5  6  2  0
  6  1  1  0
  3  7  1  0
  7  8  2  0
  8  9  1  0
  9 10  2  0
 10  4  1  0
 10 11  1  0
 11 12  1  0
 12 13  1  0
 13  5  1  0
  7 14  1  0
 14 15  1  0
 14 16  1  0
 13 17  2  0
 11 18  2  0
 12 19  1  0
 19 20  1  0
 20 21  1  0
 21 22  1  0
 22 23  1  0
 23 24  2  0
 24 25  1  0
 25 26  2  0
 26 27  1  0
 27 23  1  0
 26 28  1  0
  1 29  1  0
  2 30  1  0
  6 31  1  0
  8 32  1  0
  9 33  1  0
 15 34  1  0
 15 35  1  0
 15 36  1  0
 16 37  1  0
 16 38  1  0
 16 39  1  0
 19 40  1  0
 19 41  1  0
 20 42  1  0
 20 43  1  0
 21 44  1  0
 22 45  1  0
 22 46  1  0
 28 47  1  0
 28 48  1  0
 28 49  1  0
M  END
> <Name>
Q2

> <Clean Energy>
22.4408874511719

> <Reference>
Liu et al., 2018

> <Forcefield>
MMFF

> <ForcefieldBase>
MMFF

> <ForcefieldFFML>
<?xml version="1.0" encoding="UTF-8"?>
<!DOCTYPE ffml SYSTEM "Ffml.dtd">
<ffml version="1.0">
<forcefield name="Q2-MMFF" derivedFrom="MMFF" base="MMFF">
<atomTypes>
<atomType
 name="C100"
 element="C"
 mass="12.011"
 annotation=""/>
<atomType
 name="N101"
 element="N"
 mass="14.007"
 annotation=""/>
<atomType
 name="O102"
 element="O"
 mass="16"
 annotation=""/>
<atomType
 name="S103"
 element="S"
 mass="32.066"
 annotation=""/>
<atomType
 name="H104"
 element="H"
 mass="1.008"
 annotation=""/>
</atomTypes>
<parameters>
</parameters>
</forcefield>
</ffml>

$$$$
LNB-thiazoline
  SciTegic07212313593D

 48 50  0  0  0  0            999 V2000
   17.9449  -17.3669    0.2168 C   0  0  2  0  0  0
   18.2041  -18.7614   -0.3820 C   0  0  1  0  0  0
   19.5377  -19.3480    0.1760 C   0  0  2  0  0  0
   20.7156  -18.3979   -0.1983 C   0  0  1  0  0  0
   20.3784  -17.0362    0.4354 O   0  0
   19.1090  -16.4569   -0.1333 C   0  0  2  0  0  0
   18.9096  -15.0629    0.4646 C   0  0
   17.8402  -17.4669    1.6401 O   0  0
   17.1158  -19.6226   -0.0478 O   0  0
   22.0200  -18.9419    0.2929 O   0  0
   19.7568  -20.6389   -0.3925 O   0  0
   23.3392  -18.3044   -0.1812 C   0  0  2  0  0  0
   24.5115  -19.1043    0.4182 C   0  0  2  0  0  0
   25.8364  -18.5248   -0.0811 C   0  0  1  0  0  0
   26.0544  -17.1799    0.3344 O   0  0
   25.0255  -16.3475   -0.2306 C   0  0  1  0  0  0
   23.6396  -16.7952    0.2481 C   0  0  1  0  0  0
   22.7380  -15.8738   -0.3455 O   0  0
   20.0503  -14.2596    0.1287 O   0  0
   25.2190  -14.8893    0.2262 C   0  0
   26.4840  -14.4045   -0.2086 O   0  0
   24.5915  -20.5387    0.0689 N   0  0
   25.8015  -20.9761    0.1117 C   0  0
   26.9668  -19.7259    0.5191 S   0  0
   26.1890  -22.3956   -0.1824 C   0  0
   17.0214  -16.9567   -0.1921 H   0  0
   18.2752  -18.6781   -1.4665 H   0  0
   19.4711  -19.4348    1.2605 H   0  0
   20.7579  -18.2886   -1.2819 H   0  0
   19.1975  -16.3793   -1.2169 H   0  0
   18.0071  -14.6113    0.0527 H   0  0
   18.8175  -15.1368    1.5482 H   0  0
   17.0452  -18.1062    1.8890 H   0  0
   17.0350  -19.6962    0.9965 H   0  0
   18.9597  -21.2736   -0.1388 H   0  0
   23.3892  -18.3741   -1.2678 H   0  0
   24.4776  -19.0114    1.5037 H   0  0
   25.8412  -18.5570   -1.1706 H   0  0
   25.0705  -16.3987   -1.3185 H   0  0
   23.5850  -16.7087    1.3333 H   0  0
   22.9667  -14.9015   -0.0216 H   0  0
   20.9177  -14.6996    0.5245 H   0  0
   24.4298  -14.2702   -0.2005 H   0  0
   25.1698  -14.8428    1.3141 H   0  0
   27.2468  -14.9980    0.2020 H   0  0
   27.2681  -22.5074   -0.0773 H   0  0
   25.8955  -22.6494   -1.2010 H   0  0
   25.6853  -23.0627    0.5173 H   0  0
  1  2  1  0
  2  3  1  0
  3  4  1  0
  4  5  1  0
  5  6  1  0
  6  1  1  0
  6  7  1  0
  1  8  1  0
  2  9  1  0
  4 10  1  0
  3 11  1  0
 12 10  1  0
 12 13  1  0
 13 14  1  0
 14 15  1  0
 15 16  1  0
 16 17  1  0
 17 12  1  0
 17 18  1  0
  7 19  1  0
 16 20  1  0
 20 21  1  0
 13 22  1  0
 22 23  2  0
 23 24  1  0
 24 14  1  0
 23 25  1  0
  1 26  1  0
  2 27  1  0
  3 28  1  0
  4 29  1  0
  6 30  1  0
  7 31  1  0
  7 32  1  0
  8 33  1  0
  9 34  1  0
 11 35  1  0
 12 36  1  0
 13 37  1  0
 14 38  1  0
 16 39  1  0
 17 40  1  0
 18 41  1  0
 19 42  1  0
 20 43  1  0
 20 44  1  0
 21 45  1  0
 25 46  1  0
 25 47  1  0
 25 48  1  0
M  END
> <Name>
LNB-thiazoline

> <Clean Energy>
27.8299255371094

> <Reference>
Liu et al., 2018

> <Forcefield>
MMFF

> <ForcefieldBase>
MMFF

> <ForcefieldFFML>
<?xml version="1.0" encoding="UTF-8"?>
<!DOCTYPE ffml SYSTEM "Ffml.dtd">
<ffml version="1.0">
<forcefield name="LNB-thiazoline-MMFF" derivedFrom="MMFF" base="MMFF">
<atomTypes>
<atomType
 name="C100"
 element="C"
 mass="12.011"
 annotation=""/>
<atomType
 name="O101"
 element="O"
 mass="16"
 annotation=""/>
<atomType
 name="N102"
 element="N"
 mass="14.007"
 annotation=""/>
<atomType
 name="S103"
 element="S"
 mass="32.066"
 annotation=""/>
<atomType
 name="H104"
 element="H"
 mass="1.008"
 annotation=""/>
</atomTypes>
<parameters>
</parameters>
</forcefield>
</ffml>

$$$$
LNB-thiazoline-1
  SciTegic07212313593D

 51 52  0  0  0  0            999 V2000
   18.0484  -17.4275    0.2243 C   0  0  2  0  0  0
   18.1841  -18.8332   -0.3529 C   0  0  1  0  0  0
   19.4887  -19.4612    0.1770 C   0  0  2  0  0  0
   20.6771  -18.5649   -0.2607 C   0  0  1  0  0  0
   20.4662  -17.2497    0.2927 O   0  0
   19.2707  -16.6219   -0.2019 C   0  0  2  0  0  0
   19.1708  -15.2006    0.3755 C   0  0
   17.9947  -17.4919    1.6520 O   0  0
   17.0603  -19.6233    0.0367 O   0  0
   21.9516  -19.1415    0.2127 O   0  0
   19.6408  -20.7738   -0.3627 O   0  0
   23.2163  -18.4692   -0.2494 C   0  0  2  0  0  0
   24.4362  -19.3036    0.2487 C   0  0  2  0  0  0
   25.7400  -18.6247   -0.2521 C   0  0
   25.8541  -17.2625    0.2794 N   0  0
   24.7436  -16.4398   -0.2018 C   0  0  1  0  0  0
   23.4154  -17.0023    0.2890 C   0  0  1  0  0  0
   22.4321  -16.1123   -0.1994 O   0  0
   20.3199  -14.4461   -0.0213 O   0  0
   24.8866  -15.0095    0.3416 C   0  0
   26.1142  -14.4463   -0.1138 O   0  0
   24.3718  -20.6556   -0.2793 N   0  0
   25.3379  -21.5638   -0.0568 C   0  0
   25.2115  -22.9362   -0.6503 C   0  0
   26.3353  -21.2941    0.6259 O   0  0
   17.1432  -16.9564   -0.1588 H   0  0
   18.2261  -18.7753   -1.4405 H   0  0
   19.4528  -19.5152    1.2651 H   0  0
   20.6951  -18.4982   -1.3486 H   0  0
   19.3107  -16.5703   -1.2899 H   0  0
   18.2699  -14.7170   -0.0022 H   0  0
   19.1274  -15.2521    1.4634 H   0  0
   17.1679  -18.0685    1.9460 H   0  0
   17.0180  -19.6799    1.0843 H   0  0
   18.8249  -21.3683   -0.0738 H   0  0
   23.2258  -18.4483   -1.3392 H   0  0
   24.4363  -19.3363    1.3382 H   0  0
   26.5977  -19.2104    0.0787 H   0  0
   25.7259  -18.5833   -1.3412 H   0  0
   26.7789  -16.8328   -0.0445 H   0  0
   24.7505  -16.4186   -1.2915 H   0  0
   23.3985  -17.0058    1.3789 H   0  0
   22.6085  -15.1507    0.1837 H   0  0
   21.1878  -14.9122    0.3421 H   0  0
   24.0547  -14.4015   -0.0138 H   0  0
   24.8805  -15.0331    1.4313 H   0  0
   26.9164  -15.0313    0.2281 H   0  0
   23.5239  -20.9391   -0.8672 H   0  0
   26.0777  -23.5353   -0.3693 H   0  0
   25.1602  -22.8596   -1.7364 H   0  0
   24.3047  -23.4120   -0.2768 H   0  0
  1  2  1  0
  2  3  1  0
  3  4  1  0
  4  5  1  0
  5  6  1  0
  6  1  1  0
  6  7  1  0
  1  8  1  0
  2  9  1  0
  4 10  1  0
  3 11  1  0
 12 10  1  0
 12 13  1  0
 13 14  1  0
 14 15  1  0
 15 16  1  0
 16 17  1  0
 17 12  1  0
 17 18  1  0
  7 19  1  0
 16 20  1  0
 20 21  1  0
 13 22  1  0
 22 23  1  0
 23 24  1  0
 23 25  2  0
  1 26  1  0
  2 27  1  0
  3 28  1  0
  4 29  1  0
  6 30  1  0
  7 31  1  0
  7 32  1  0
  8 33  1  0
  9 34  1  0
 11 35  1  0
 12 36  1  0
 13 37  1  0
 14 38  1  0
 14 39  1  0
 15 40  1  0
 16 41  1  0
 17 42  1  0
 18 43  1  0
 19 44  1  0
 20 45  1  0
 20 46  1  0
 21 47  1  0
 22 48  1  0
 24 49  1  0
 24 50  1  0
 24 51  1  0
M  END
> <Name>
LNB-thiazoline-1

> <Clean Energy>
3.16075420379639

> <Reference>
Liu et al., 2018

> <Forcefield>
MMFF

> <ForcefieldBase>
MMFF

> <ForcefieldFFML>
<?xml version="1.0" encoding="UTF-8"?>
<!DOCTYPE ffml SYSTEM "Ffml.dtd">
<ffml version="1.0">
<forcefield name="LNB-thiazoline-1-MMFF" derivedFrom="MMFF" base="MMFF">
<atomTypes>
<atomType
 name="C100"
 element="C"
 mass="12.011"
 annotation=""/>
<atomType
 name="O101"
 element="O"
 mass="16"
 annotation=""/>
<atomType
 name="N102"
 element="N"
 mass="14.007"
 annotation=""/>
<atomType
 name="H103"
 element="H"
 mass="1.008"
 annotation=""/>
</atomTypes>
<parameters>
</parameters>
</forcefield>
</ffml>

$$$$
LNB-thiazoline-2
  SciTegic07212313593D

 65 67  0  0  0  0            999 V2000
   21.0453  -17.9819    0.2239 C   0  0  2  0  0  0
   21.1889  -19.3806   -0.3659 C   0  0  1  0  0  0
   22.5037  -20.0059    0.1540 C   0  0  2  0  0  0
   23.6961  -19.0998   -0.2782 C   0  0  1  0  0  0
   23.4711  -17.7887    0.2828 O   0  0
   22.2609  -17.1654   -0.2054 C   0  0  2  0  0  0
   22.1477  -15.7476    0.3792 C   0  0
   20.9982  -18.0555    1.6507 O   0  0
   20.0710  -20.1811    0.0246 O   0  0
   24.9908  -19.6860    0.1940 O   0  0
   22.6579  -21.3131   -0.3972 O   0  0
   26.2606  -18.9682   -0.2096 C   0  0  2  0  0  0
   27.4793  -19.8563    0.2024 C   0  0  2  0  0  0
   28.8406  -19.1347    0.0388 C   0  0
   28.9363  -17.7368    0.0030 O   0  0
   27.7308  -16.9935   -0.2109 C   0  0  1  0  0  0
   26.4878  -17.5674    0.4503 C   0  0  1  0  0  0
   25.4700  -16.6492    0.1230 O   0  0
   23.2835  -14.9777   -0.0232 O   0  0
   27.9641  -15.5610    0.2877 C   0  0
   29.0785  -14.9959   -0.3994 O   0  0
   27.4712  -21.1552   -0.4607 N   0  0
   28.2811  -22.1579   -0.0993 C   0  0
   28.2299  -23.4624   -0.8389 C   0  0
   29.0844  -22.0189    0.8331 O   0  0
   29.9366  -19.7722    0.0617 N   0  0
   31.0813  -19.0840   -0.0105 O   0  0
   32.2070  -19.9100    0.0303 C   0  0
   33.5047  -19.3223   -0.0326 N   0  0
   32.0535  -21.1445    0.1182 O   0  0
   34.7472  -20.0165   -0.0150 C   0  0
   34.8043  -21.3620    0.0370 C   0  0
   36.1044  -22.0404    0.0501 C   0  0
   37.2328  -21.3366    0.0108 C   0  0
   37.1766  -19.8740   -0.0457 C   0  0
   35.9999  -19.2558   -0.0577 C   0  0
   20.1352  -17.5144   -0.1519 H   0  0
   21.2245  -19.3136   -1.4533 H   0  0
   22.4711  -20.0708    1.2416 H   0  0
   23.7128  -19.0254   -1.3655 H   0  0
   22.2947  -17.1084   -1.2934 H   0  0
   21.2378  -15.2737    0.0109 H   0  0
   22.1135  -15.8044    1.4672 H   0  0
   20.1768  -18.6400    1.9445 H   0  0
   20.0352  -20.2458    1.0721 H   0  0
   21.8463  -21.9133   -0.1081 H   0  0
   26.2654  -18.8490   -1.2931 H   0  0
   27.3655  -20.0563    1.2678 H   0  0
   27.5497  -16.9497   -1.2849 H   0  0
   26.6147  -17.6522    1.5296 H   0  0
   25.7173  -15.7019    0.5026 H   0  0
   24.1600  -15.4345    0.3312 H   0  0
   27.0755  -14.9598    0.0952 H   0  0
   28.1674  -15.5773    1.3584 H   0  0
   29.9346  -15.5751   -0.2144 H   0  0
   26.7893  -21.3133   -1.2700 H   0  0
   28.9542  -24.1536   -0.4080 H   0  0
   28.4687  -23.2948   -1.8891 H   0  0
   27.2296  -23.8877   -0.7575 H   0  0
   33.5487  -18.2553   -0.0995 H   0  0
   33.8844  -21.9458    0.0692 H   0  0
   36.1465  -23.1287    0.0923 H   0  0
   38.1959  -21.8468    0.0206 H   0  0
   38.0985  -19.2933   -0.0779 H   0  0
   35.9658  -18.1672   -0.1000 H   0  0
  1  2  1  0
  2  3  1  0
  3  4  1  0
  4  5  1  0
  5  6  1  0
  6  1  1  0
  6  7  1  0
  1  8  1  0
  2  9  1  0
  4 10  1  0
  3 11  1  0
 12 10  1  0
 12 13  1  0
 13 14  1  0
 14 15  1  0
 15 16  1  0
 16 17  1  0
 17 12  1  0
 17 18  1  0
  7 19  1  0
 16 20  1  0
 20 21  1  0
 13 22  1  0
 22 23  1  0
 23 24  1  0
 23 25  2  0
 14 26  2  0
 26 27  1  0
 27 28  1  0
 28 29  1  0
 28 30  2  0
 29 31  1  0
 31 32  2  0
 32 33  1  0
 33 34  2  0
 34 35  1  0
 35 36  2  0
 36 31  1  0
  1 37  1  0
  2 38  1  0
  3 39  1  0
  4 40  1  0
  6 41  1  0
  7 42  1  0
  7 43  1  0
  8 44  1  0
  9 45  1  0
 11 46  1  0
 12 47  1  0
 13 48  1  0
 16 49  1  0
 17 50  1  0
 18 51  1  0
 19 52  1  0
 20 53  1  0
 20 54  1  0
 21 55  1  0
 22 56  1  0
 24 57  1  0
 24 58  1  0
 24 59  1  0
 29 60  1  0
 32 61  1  0
 33 62  1  0
 34 63  1  0
 35 64  1  0
 36 65  1  0
M  END
> <Name>
LNB-thiazoline-2

> <Clean Energy>
27.1248321533203

> <Reference>
Liu et al., 2018

> <Forcefield>
MMFF

> <ForcefieldBase>
MMFF

> <ForcefieldFFML>
<?xml version="1.0" encoding="UTF-8"?>
<!DOCTYPE ffml SYSTEM "Ffml.dtd">
<ffml version="1.0">
<forcefield name="LNB-thiazoline-2-MMFF" derivedFrom="MMFF" base="MMFF">
<atomTypes>
<atomType
 name="C100"
 element="C"
 mass="12.011"
 annotation=""/>
<atomType
 name="O101"
 element="O"
 mass="16"
 annotation=""/>
<atomType
 name="N102"
 element="N"
 mass="14.007"
 annotation=""/>
<atomType
 name="H103"
 element="H"
 mass="1.008"
 annotation=""/>
</atomTypes>
<parameters>
</parameters>
</forcefield>
</ffml>

$$$$
LNB-thiazoline-3
  SciTegic07212313593D

 55 57  0  0  0  0            999 V2000
   18.3231  -17.2196    0.2171 C   0  0  2  0  0  0
   18.4539  -18.6292   -0.3552 C   0  0  1  0  0  0
   19.7639  -19.2523    0.1652 C   0  0  2  0  0  0
   20.9434  -18.3600   -0.2943 C   0  0  1  0  0  0
   20.7398  -17.0373    0.2559 O   0  0
   19.5390  -16.4136   -0.2270 C   0  0  2  0  0  0
   19.4463  -14.9901    0.3470 C   0  0
   18.2858  -17.2776    1.6449 O   0  0
   17.3360  -19.4182    0.0525 O   0  0
   22.2188  -18.9256    0.1725 O   0  0
   19.9128  -20.5687   -0.3665 O   0  0
   23.4783  -18.2764   -0.3298 C   0  0  2  0  0  0
   24.7071  -19.0394    0.2930 C   0  0  2  0  0  0
   26.0350  -18.3818   -0.2140 C   0  0
   26.0404  -16.9696    0.1655 N   0  0
   24.9570  -16.2696   -0.4612 C   0  0  1  0  0  0
   23.6283  -16.7544    0.0446 C   0  0  1  0  0  0
   22.6510  -15.9330   -0.5736 O   0  0
   20.5923  -14.2382   -0.0639 O   0  0
   24.6524  -20.4482   -0.0947 N   0  0
   25.6615  -21.3227    0.0838 C   0  0
   25.4848  -22.7429   -0.3687 C   0  0
   26.7327  -20.9936    0.6100 O   0  0
   27.2667  -16.2083   -0.2312 C   0  0
   26.6791  -14.8246   -0.6922 C   0  0
   25.2806  -14.8686   -0.0850 C   0  0  2  0  0  0
   25.3290  -14.7847    1.3397 O   0  0
   17.4127  -16.7517   -0.1576 H   0  0
   18.4840  -18.5776   -1.4436 H   0  0
   19.7409  -19.2973    1.2540 H   0  0
   20.9504  -18.3018   -1.3827 H   0  0
   19.5662  -16.3659   -1.3156 H   0  0
   18.5421  -14.5068   -0.0232 H   0  0
   19.4137  -15.0381    1.4354 H   0  0
   17.4631  -17.8537    1.9509 H   0  0
   17.3067  -19.4693    1.1009 H   0  0
   19.1008  -21.1623   -0.0652 H   0  0
   23.5162  -18.3764   -1.4146 H   0  0
   24.6622  -18.9647    1.3795 H   0  0
   26.8887  -18.8855    0.2394 H   0  0
   26.0952  -18.4690   -1.2988 H   0  0
   25.0112  -16.3883   -1.5433 H   0  0
   23.5796  -16.6344    1.1269 H   0  0
   22.8155  -14.9310   -0.3065 H   0  0
   21.4633  -14.7041    0.2922 H   0  0
   23.7530  -20.8077   -0.5494 H   0  0
   26.3899  -23.3096   -0.1504 H   0  0
   25.2949  -22.7619   -1.4419 H   0  0
   24.6411  -23.1899    0.1572 H   0  0
   27.9439  -16.0858    0.6140 H   0  0
   27.7904  -16.7048   -1.0482 H   0  0
   27.2600  -13.9930   -0.2932 H   0  0
   26.6387  -14.7518   -1.7790 H   0  0
   24.6014  -14.1417   -0.5303 H   0  0
   25.8827  -15.5919    1.7197 H   0  0
  1  2  1  0
  2  3  1  0
  3  4  1  0
  4  5  1  0
  5  6  1  0
  6  1  1  0
  6  7  1  0
  1  8  1  0
  2  9  1  0
  4 10  1  0
  3 11  1  0
 12 10  1  0
 12 13  1  0
 13 14  1  0
 14 15  1  0
 15 16  1  0
 16 17  1  0
 17 12  1  0
 17 18  1  0
  7 19  1  0
 13 20  1  0
 20 21  1  0
 21 22  1  0
 21 23  2  0
 15 24  1  0
 24 25  1  0
 25 26  1  0
 26 16  1  0
 26 27  1  0
  1 28  1  0
  2 29  1  0
  3 30  1  0
  4 31  1  0
  6 32  1  0
  7 33  1  0
  7 34  1  0
  8 35  1  0
  9 36  1  0
 11 37  1  0
 12 38  1  0
 13 39  1  0
 14 40  1  0
 14 41  1  0
 16 42  1  0
 17 43  1  0
 18 44  1  0
 19 45  1  0
 20 46  1  0
 22 47  1  0
 22 48  1  0
 22 49  1  0
 24 50  1  0
 24 51  1  0
 25 52  1  0
 25 53  1  0
 26 54  1  0
 27 55  1  0
M  END
> <Name>
LNB-thiazoline-3

> <Clean Energy>
27.4101085662842

> <Reference>
Liu et al., 2018

> <Forcefield>
MMFF

> <ForcefieldBase>
MMFF

> <ForcefieldFFML>
<?xml version="1.0" encoding="UTF-8"?>
<!DOCTYPE ffml SYSTEM "Ffml.dtd">
<ffml version="1.0">
<forcefield name="LNB-thiazoline-3-MMFF" derivedFrom="MMFF" base="MMFF">
<atomTypes>
<atomType
 name="C100"
 element="C"
 mass="12.011"
 annotation=""/>
<atomType
 name="O101"
 element="O"
 mass="16"
 annotation=""/>
<atomType
 name="N102"
 element="N"
 mass="14.007"
 annotation=""/>
<atomType
 name="H103"
 element="H"
 mass="1.008"
 annotation=""/>
</atomTypes>
<parameters>
</parameters>
</forcefield>
</ffml>

$$$$
LNB-thiazoline-4
  SciTegic07212313593D

 55 57  0  0  0  0            999 V2000
   18.2518  -17.6073    0.2084 C   0  0  2  0  0  0
   18.3287  -19.0276   -0.3483 C   0  0  1  0  0  0
   19.5875  -19.7021    0.2141 C   0  0  2  0  0  0
   20.8191  -18.8783   -0.2169 C   0  0  1  0  0  0
   20.6824  -17.5316    0.3055 O   0  0
   19.5211  -16.8604   -0.2175 C   0  0  2  0  0  0
   19.4788  -15.4278    0.3348 C   0  0
   18.1751  -17.6481    1.6344 O   0  0
   17.1660  -19.7618    0.0389 O   0  0
   22.0236  -19.5267    0.2978 O   0  0
   19.6912  -21.0298   -0.3018 O   0  0
   23.2813  -18.9066   -0.1396 C   0  0  2  0  0  0
   20.6668  -14.7371   -0.0599 O   0  0
   24.6691  -19.5393    0.0927 C   0  0  2  0  0  0
   25.4593  -18.4777   -0.6461 N   0  0
   25.0282  -17.4972    0.2337 C   0  0  2  0  0  0
   23.5154  -17.3865    0.1641 C   0  0  1  0  0  0
   26.9555  -18.4536   -0.5246 C   0  0
   27.1995  -17.2035    0.4083 C   0  0
   25.9420  -16.3545    0.1286 C   0  0  2  0  0  0
   22.9772  -16.6397   -0.9310 O   0  0
   24.8559  -20.9489   -0.4930 C   0  0
   25.7262  -15.3203    1.0898 O   0  0
   24.0263  -21.8984    0.1776 N   0  0
   24.2900  -23.1946    0.0350 C   0  0
   23.4391  -24.2188    0.7249 C   0  0
   25.2455  -23.5550   -0.6629 O   0  0
   17.3741  -17.1011   -0.1935 H   0  0
   18.3905  -18.9899   -1.4359 H   0  0
   19.5309  -19.7349    1.3021 H   0  0
   20.8660  -18.8407   -1.3052 H   0  0
   19.5777  -16.8296   -1.3056 H   0  0
   18.6065  -14.9093   -0.0631 H   0  0
   19.4192  -15.4582    1.4227 H   0  0
   17.3177  -18.1804    1.9242 H   0  0
   17.1097  -19.8021    1.0867 H   0  0
   18.8442  -21.5825   -0.0198 H   0  0
   23.1903  -18.9221   -1.2257 H   0  0
   21.5068  -15.2376    0.3228 H   0  0
   24.9189  -19.5312    1.1536 H   0  0
   25.2252  -17.9129    1.2219 H   0  0
   23.0814  -17.0868    1.1180 H   0  0
   27.3283  -19.3683   -0.0637 H   0  0
   27.4278  -18.3177   -1.4975 H   0  0
   27.2565  -17.4955    1.4570 H   0  0
   28.1086  -16.6708    0.1291 H   0  0
   25.9555  -15.9534   -0.8848 H   0  0
   23.3340  -15.6530   -0.8914 H   0  0
   24.5942  -20.9322   -1.5510 H   0  0
   25.8987  -21.2455   -0.3808 H   0  0
   25.6117  -15.7459    2.0428 H   0  0
   23.2070  -21.5730    0.7841 H   0  0
   23.8082  -25.2169    0.4893 H   0  0
   22.4078  -24.1238    0.3849 H   0  0
   23.4819  -24.0612    1.8026 H   0  0
  1  2  1  0
  2  3  1  0
  3  4  1  0
  4  5  1  0
  5  6  1  0
  6  1  1  0
  6  7  1  0
  1  8  1  0
  2  9  1  0
  4 10  1  0
  3 11  1  0
 12 10  1  0
  7 13  1  0
 12 14  1  0
 14 15  1  0
 15 16  1  0
 16 17  1  0
 17 12  1  0
 15 18  1  0
 18 19  1  0
 19 20  1  0
 20 16  1  0
 17 21  1  0
 14 22  1  0
 20 23  1  0
 22 24  1  0
 24 25  1  0
 25 26  1  0
 25 27  2  0
  1 28  1  0
  2 29  1  0
  3 30  1  0
  4 31  1  0
  6 32  1  0
  7 33  1  0
  7 34  1  0
  8 35  1  0
  9 36  1  0
 11 37  1  0
 12 38  1  0
 13 39  1  0
 14 40  1  0
 16 41  1  0
 17 42  1  0
 18 43  1  0
 18 44  1  0
 19 45  1  0
 19 46  1  0
 20 47  1  0
 21 48  1  0
 22 49  1  0
 22 50  1  0
 23 51  1  0
 24 52  1  0
 26 53  1  0
 26 54  1  0
 26 55  1  0
M  END
> <Name>
LNB-thiazoline-4

> <Clean Energy>
85.3520965576172

> <Reference>
Liu et al., 2018

> <Forcefield>
MMFF

> <ForcefieldBase>
MMFF

> <ForcefieldFFML>
<?xml version="1.0" encoding="UTF-8"?>
<!DOCTYPE ffml SYSTEM "Ffml.dtd">
<ffml version="1.0">
<forcefield name="LNB-thiazoline-4-MMFF" derivedFrom="MMFF" base="MMFF">
<atomTypes>
<atomType
 name="C100"
 element="C"
 mass="12.011"
 annotation=""/>
<atomType
 name="O101"
 element="O"
 mass="16"
 annotation=""/>
<atomType
 name="N102"
 element="N"
 mass="14.007"
 annotation=""/>
<atomType
 name="H103"
 element="H"
 mass="1.008"
 annotation=""/>
</atomTypes>
<parameters>
</parameters>
</forcefield>
</ffml>

$$$$
2 Hattie et al., 2015
  SciTegic07212313593D

 51 52  0  0  0  0            999 V2000
   16.8458  -15.3352    0.2126 C   0  0  2  0  0  0
   16.9909  -16.7352   -0.3772 C   0  0  1  0  0  0
   18.2983  -17.3612    0.1533 C   0  0  2  0  0  0
   19.4866  -16.4540   -0.2710 C   0  0  1  0  0  0
   19.2623  -15.1476    0.2891 O   0  0
   18.0648  -14.5218   -0.2080 C   0  0  2  0  0  0
   17.9560  -13.1036    0.3764 C   0  0
   16.7894  -15.4085    1.6386 O   0  0
   15.8699  -17.5345    0.0049 O   0  0
   20.7673  -17.0300    0.2075 O   0  0
   18.4591  -18.6685   -0.3976 O   0  0
   22.0219  -16.3045   -0.1974 C   0  0  2  0  0  0
   23.2297  -17.1910    0.2231 C   0  0  2  0  0  0
   24.5694  -16.4670    0.0548 C   0  0
   24.6922  -15.0791    0.0065 O   0  0
   23.4890  -14.3322   -0.2151 C   0  0  1  0  0  0
   22.2513  -14.8977    0.4532 C   0  0  1  0  0  0
   21.2373  -13.9790    0.1177 O   0  0
   19.1011  -12.3408   -0.0163 O   0  0
   23.7284  -12.8951    0.2696 C   0  0
   24.8425  -12.3397   -0.4252 O   0  0
   23.2095  -18.4881   -0.4419 N   0  0
   24.0207  -19.4979   -0.0736 C   0  0
   23.9573  -20.8003   -0.8230 C   0  0
   24.8171  -19.3670    0.8512 O   0  0
   25.6633  -17.1360    0.0869 N   0  0
   26.8161  -16.4934    0.0095 O   0  0
   15.9391  -14.8659   -0.1692 H   0  0
   17.0354  -16.6684   -1.4642 H   0  0
   18.2577  -17.4254    1.2406 H   0  0
   19.5107  -16.3791   -1.3582 H   0  0
   18.1078  -14.4654   -1.2957 H   0  0
   17.0525  -12.6234    0.0005 H   0  0
   17.9122  -13.1605    1.4641 H   0  0
   15.9653  -15.9916    1.9273 H   0  0
   15.8266  -17.6000    1.0519 H   0  0
   17.6450  -19.2695   -0.1172 H   0  0
   22.0287  -16.1945   -1.2818 H   0  0
   23.1146  -17.3869    1.2892 H   0  0
   23.3063  -14.2992   -1.2892 H   0  0
   22.3799  -14.9735    1.5330 H   0  0
   21.4887  -13.0290    0.4875 H   0  0
   19.9714  -12.8038    0.3453 H   0  0
   22.8411  -12.2930    0.0738 H   0  0
   23.9344  -12.9021    1.3399 H   0  0
   25.6974  -12.9196   -0.2371 H   0  0
   22.5264  -18.6432   -1.2507 H   0  0
   24.6751  -21.5009   -0.3965 H   0  0
   24.1977  -20.6283   -1.8722 H   0  0
   22.9531  -21.2168   -0.7443 H   0  0
   26.8616  -15.9630   -0.8956 H   0  0
  1  2  1  0
  2  3  1  0
  3  4  1  0
  4  5  1  0
  5  6  1  0
  6  1  1  0
  6  7  1  0
  1  8  1  0
  2  9  1  0
  4 10  1  0
  3 11  1  0
 12 10  1  0
 12 13  1  0
 13 14  1  0
 14 15  1  0
 15 16  1  0
 16 17  1  0
 17 12  1  0
 17 18  1  0
  7 19  1  0
 16 20  1  0
 20 21  1  0
 13 22  1  0
 22 23  1  0
 23 24  1  0
 23 25  2  0
 14 26  2  0
 26 27  1  0
  1 28  1  0
  2 29  1  0
  3 30  1  0
  4 31  1  0
  6 32  1  0
  7 33  1  0
  7 34  1  0
  8 35  1  0
  9 36  1  0
 11 37  1  0
 12 38  1  0
 13 39  1  0
 16 40  1  0
 17 41  1  0
 18 42  1  0
 19 43  1  0
 20 44  1  0
 20 45  1  0
 21 46  1  0
 22 47  1  0
 24 48  1  0
 24 49  1  0
 24 50  1  0
 27 51  1  0
M  END
> <Name>
2 Hattie et al., 2015

> <Clean Energy>
26.5138149261475

> <Reference>
Hattie et al., 2015

> <Forcefield>
MMFF

> <ForcefieldBase>
MMFF

> <ForcefieldFFML>
<?xml version="1.0" encoding="UTF-8"?>
<!DOCTYPE ffml SYSTEM "Ffml.dtd">
<ffml version="1.0">
<forcefield name="2 Hattie et al., 2015-MMFF" derivedFrom="MMFF" base="MMFF">
<atomTypes>
<atomType
 name="C100"
 element="C"
 mass="12.011"
 annotation=""/>
<atomType
 name="O101"
 element="O"
 mass="16"
 annotation=""/>
<atomType
 name="N102"
 element="N"
 mass="14.007"
 annotation=""/>
<atomType
 name="H103"
 element="H"
 mass="1.008"
 annotation=""/>
</atomTypes>
<parameters>
</parameters>
</forcefield>
</ffml>

$$$$
13 Hattie et al., 2015
  SciTegic07212313593D

 76 77  0  0  0  0            999 V2000
   28.1099  -22.5290   -0.4607 N   0  0
   29.0861  -23.2163   -0.2422 N   0  3
   30.0385  -23.9142   -0.0429 N   0  5
   20.8804  -18.5743   -0.0789 C   0  0  2  0  0  0
   20.8397  -20.2336   -0.2758 C   0  0  1  0  0  0
   22.3878  -21.0708    0.2540 C   0  0  2  0  0  0
   23.7286  -20.2163   -0.2473 C   0  0  1  0  0  0
   23.5263  -18.8483    0.4703 O   0  0
   22.3389  -17.8278    0.0449 C   0  0  2  0  0  0
   22.4371  -16.4512    0.9224 C   0  0
   19.7386  -17.7972    0.4917 O   0  0
   19.6293  -20.9788    0.2730 O   0  0
   25.1439  -20.8200    0.1368 O   0  0
   22.4018  -22.5468   -0.2451 O   0  0
   26.5433  -20.1712   -0.3303 C   0  0  2  0  0  0
   27.9241  -21.1046    0.1360 C   0  0  2  0  0  0
   29.2995  -20.3229    0.0316 C   0  0
   29.4301  -18.9269    0.1567 O   0  0
   28.3115  -18.1239   -0.0584 C   0  0  1  0  0  0
   26.6849  -18.7283    0.3057 C   0  0  1  0  0  0
   25.3998  -17.8290   -0.2968 O   0  0
   23.5461  -15.4813    0.7356 O   0  0
   28.6600  -16.5343    0.8369 C   0  0
   29.6239  -15.5388    0.2893 O   0  0
   23.3524  -13.9114    0.3769 C   0  0
   24.3720  -13.2112    0.1754 O   0  0
   22.0819  -13.2197    0.1242 C   0  0
   19.5355  -16.3856    0.1014 C   0  0
   18.2422  -15.7229    0.3055 C   0  0
   20.3913  -15.7033   -0.4636 O   0  0
   18.3117  -20.3389    0.0865 C   0  0
   17.0438  -21.0845    0.3099 C   0  0
   18.1723  -19.1892   -0.3201 O   0  0
   23.6463  -23.3864   -0.0896 C   0  0
   23.6120  -24.8700   -0.2997 C   0  0
   24.7362  -22.9376    0.2442 O   0  0
   25.7728  -16.5507   -0.6124 C   0  0
   25.2838  -15.4571   -1.2342 C   0  0
   26.8021  -16.3123   -0.6541 O   0  0
   30.3967  -20.9691   -0.0101 N   0  0
   31.5725  -20.3069   -0.0161 O   0  0
   29.2439  -14.0807    0.0756 C   0  0
   30.4002  -13.1751   -0.2004 C   0  0
   28.1084  -13.5656    0.2130 O   0  0
   20.6969  -18.3192   -1.1226 H   0  0
   20.7954  -20.3855   -1.3543 H   0  0
   22.3967  -21.0903    1.3438 H   0  0
   23.6799  -20.0687   -1.3261 H   0  0
   22.5837  -17.5261   -0.9735 H   0  0
   21.5150  -15.9016    0.7335 H   0  0
   22.4709  -16.7568    1.9681 H   0  0
   26.5379  -20.0748   -1.4161 H   0  0
   27.7888  -21.2736    1.2043 H   0  0
   28.3134  -17.8800   -1.1207 H   0  0
   26.5768  -18.8111    1.3872 H   0  0
   27.7048  -16.0186    0.9352 H   0  0
   29.0279  -16.8101    1.8252 H   0  0
   22.2760  -12.1688   -0.0901 H   0  0
   21.4433  -13.2986    1.0040 H   0  0
   21.5819  -13.6776   -0.7294 H   0  0
   18.3015  -14.6930   -0.0464 H   0  0
   17.9932  -15.7300    1.3666 H   0  0
   17.4699  -16.2529   -0.2521 H   0  0
   16.1961  -20.4270    0.1172 H   0  0
   17.0044  -21.4344    1.3415 H   0  0
   17.0006  -21.9393   -0.3651 H   0  0
   24.6078  -25.2833   -0.1400 H   0  0
   23.2886  -25.0859   -1.3180 H   0  0
   22.9145  -25.3214    0.4059 H   0  0
   26.0275  -14.6607   -1.2082 H   0  0
   24.3782  -15.1245   -0.7268 H   0  0
   25.0502  -15.7017   -2.2704 H   0  0
   31.6172  -19.6795   -0.8568 H   0  0
   30.0392  -12.1562   -0.3400 H   0  0
   30.9133  -13.5051   -1.1037 H   0  0
   31.0928  -13.2026    0.6409 H   0  0
  2  3  2  0
  1  2  2  0
  4  5  1  0
  5  6  1  0
  6  7  1  0
  7  8  1  0
  8  9  1  0
  9  4  1  0
  9 10  1  0
  4 11  1  0
  5 12  1  0
  7 13  1  0
  6 14  1  0
 15 13  1  0
 15 16  1  0
 16 17  1  0
 17 18  1  0
 18 19  1  0
 19 20  1  0
 20 15  1  0
 20 21  1  0
 10 22  1  0
 19 23  1  0
 23 24  1  0
 22 25  1  0
 25 26  2  0
 25 27  1  0
 11 28  1  0
 28 29  1  0
 28 30  2  0
 12 31  1  0
 31 32  1  0
 31 33  2  0
 14 34  1  0
 34 35  1  0
 34 36  2  0
 21 37  1  0
 37 38  1  0
 37 39  2  0
 17 40  2  0
 40 41  1  0
 24 42  1  0
 42 43  1  0
 42 44  2  0
  4 45  1  0
  5 46  1  0
  6 47  1  0
  7 48  1  0
  9 49  1  0
 10 50  1  0
 10 51  1  0
 15 52  1  0
 16 53  1  0
 19 54  1  0
 20 55  1  0
 23 56  1  0
 23 57  1  0
 27 58  1  0
 27 59  1  0
 27 60  1  0
 29 61  1  0
 29 62  1  0
 29 63  1  0
 32 64  1  0
 32 65  1  0
 32 66  1  0
 35 67  1  0
 35 68  1  0
 35 69  1  0
 38 70  1  0
 38 71  1  0
 38 72  1  0
 41 73  1  0
 43 74  1  0
 43 75  1  0
 43 76  1  0
 16  1  1  0
M  CHG  2   2   1   3  -1
M  END
> <Name>
13 Hattie et al., 2015

> <Clean Energy>
501.239562988281

> <Reference>
Hattie et al., 2015

> <Forcefield>
MMFF

> <ForcefieldBase>
MMFF

> <ForcefieldFFML>
<?xml version="1.0" encoding="UTF-8"?>
<!DOCTYPE ffml SYSTEM "Ffml.dtd">
<ffml version="1.0">
<forcefield name="13 Hattie et al., 2015-MMFF" derivedFrom="MMFF" base="MMFF">
<atomTypes>
<atomType
 name="N100"
 element="N"
 mass="14.007"
 annotation=""/>
<atomType
 name="C101"
 element="C"
 mass="12.011"
 annotation=""/>
<atomType
 name="O102"
 element="O"
 mass="16"
 annotation=""/>
<atomType
 name="H103"
 element="H"
 mass="1.008"
 annotation=""/>
</atomTypes>
<parameters>
</parameters>
</forcefield>
</ffml>

$$$$
12 Hattie et al., 2015
  SciTegic07212313593D

 76 77  0  0  0  0            999 V2000
   27.9128  -22.5038   -0.3283 N   0  0
   28.9052  -23.1956   -0.1933 N   0  3
   29.8947  -23.8570   -0.0445 N   0  5
   20.7159  -18.5256   -0.0939 C   0  0  2  0  0  0
   20.6885  -20.1987   -0.2710 C   0  0  1  0  0  0
   22.2378  -21.0361    0.2546 C   0  0  2  0  0  0
   23.5754  -20.1842   -0.2438 C   0  0  1  0  0  0
   23.3812  -18.8153    0.4692 O   0  0
   22.1914  -17.7964    0.0531 C   0  0  2  0  0  0
   22.2947  -16.4224    0.9277 C   0  0
   19.5869  -17.7626    0.4830 O   0  0
   19.4828  -20.9465    0.2788 O   0  0
   24.9740  -20.7913    0.1599 O   0  0
   22.2534  -22.5138   -0.2453 O   0  0
   26.3709  -20.1729   -0.3055 C   0  0  2  0  0  0
   27.7361  -21.0673    0.2510 C   0  0  2  0  0  0
   29.0782  -20.2808   -0.0895 C   0  0  1  0  0  0
   29.1290  -18.9614    0.4751 O   0  0
   28.1527  -18.0922    0.0076 C   0  0  1  0  0  0
   26.4909  -18.6828    0.2669 C   0  0  1  0  0  0
   25.2279  -17.8088   -0.4122 O   0  0
   23.4031  -15.4477    0.7309 O   0  0
   28.4736  -16.4727    0.8666 C   0  0
   29.4677  -15.5062    0.3296 O   0  0
   23.2091  -13.8778    0.3735 C   0  0
   24.2286  -13.1786    0.1709 O   0  0
   21.9381  -13.1822    0.1247 C   0  0
   19.3894  -16.3496    0.0980 C   0  0
   18.0941  -15.6875    0.2949 C   0  0
   20.2500  -15.6628   -0.4536 O   0  0
   18.1634  -20.3046    0.0899 C   0  0
   16.8942  -21.0496    0.3083 C   0  0
   18.0236  -19.1557   -0.3189 O   0  0
   23.4983  -23.3548   -0.0912 C   0  0
   23.4629  -24.8378   -0.2981 C   0  0
   24.5895  -22.9083    0.2400 O   0  0
   25.5948  -16.5284   -0.6403 C   0  0
   25.1330  -15.4190   -1.2665 C   0  0
   26.6200  -16.3078   -0.6211 O   0  0
   30.1832  -20.9637    0.4998 O   0  0
   29.0989  -14.0464    0.0883 C   0  0
   30.2599  -13.1476   -0.1886 C   0  0
   27.9625  -13.5263    0.2002 O   0  0
   20.5375  -18.2712   -1.1387 H   0  0
   20.6424  -20.3592   -1.3481 H   0  0
   22.2477  -21.0568    1.3444 H   0  0
   23.5367  -20.0423   -1.3239 H   0  0
   22.4425  -17.4891   -0.9621 H   0  0
   21.3699  -15.8745    0.7468 H   0  0
   22.3381  -16.7278    1.9731 H   0  0
   26.3943  -20.1352   -1.3946 H   0  0
   27.6626  -21.1503    1.3353 H   0  0
   29.2108  -20.2261   -1.1700 H   0  0
   28.3037  -17.9494   -1.0624 H   0  0
   26.3206  -18.7276    1.3425 H   0  0
   27.5194  -15.9473    0.9042 H   0  0
   28.7945  -16.7172    1.8792 H   0  0
   22.1342  -12.1317   -0.0896 H   0  0
   21.3020  -13.2601    1.0064 H   0  0
   21.4345  -13.6384   -0.7276 H   0  0
   18.1564  -14.6558   -0.0510 H   0  0
   17.8363  -15.7001    1.3540 H   0  0
   17.3263  -16.2144   -0.2717 H   0  0
   16.0477  -20.3909    0.1146 H   0  0
   16.8516  -21.4015    1.3391 H   0  0
   16.8521  -21.9030   -0.3685 H   0  0
   24.4589  -25.2511   -0.1400 H   0  0
   23.1370  -25.0556   -1.3152 H   0  0
   22.7669  -25.2874    0.4101 H   0  0
   25.8502  -14.6073   -1.1448 H   0  0
   24.1773  -15.1268   -0.8313 H   0  0
   24.9995  -15.6291   -2.3277 H   0  0
   30.0541  -21.0063    1.5410 H   0  0
   29.9026  -12.1302   -0.3475 H   0  0
   30.7822  -13.4923   -1.0811 H   0  0
   30.9430  -13.1637    0.6607 H   0  0
  2  3  2  0
  1  2  2  0
  4  5  1  0
  5  6  1  0
  6  7  1  0
  7  8  1  0
  8  9  1  0
  9  4  1  0
  9 10  1  0
  4 11  1  0
  5 12  1  0
  7 13  1  0
  6 14  1  0
 15 13  1  0
 15 16  1  0
 16 17  1  0
 17 18  1  0
 18 19  1  0
 19 20  1  0
 20 15  1  0
 20 21  1  0
 10 22  1  0
 19 23  1  0
 23 24  1  0
 22 25  1  0
 25 26  2  0
 25 27  1  0
 11 28  1  0
 28 29  1  0
 28 30  2  0
 12 31  1  0
 31 32  1  0
 31 33  2  0
 14 34  1  0
 34 35  1  0
 34 36  2  0
 21 37  1  0
 37 38  1  0
 37 39  2  0
 17 40  1  0
 24 41  1  0
 41 42  1  0
 41 43  2  0
  4 44  1  0
  5 45  1  0
  6 46  1  0
  7 47  1  0
  9 48  1  0
 10 49  1  0
 10 50  1  0
 15 51  1  0
 16 52  1  0
 17 53  1  0
 19 54  1  0
 20 55  1  0
 23 56  1  0
 23 57  1  0
 27 58  1  0
 27 59  1  0
 27 60  1  0
 29 61  1  0
 29 62  1  0
 29 63  1  0
 32 64  1  0
 32 65  1  0
 32 66  1  0
 35 67  1  0
 35 68  1  0
 35 69  1  0
 38 70  1  0
 38 71  1  0
 38 72  1  0
 40 73  1  0
 42 74  1  0
 42 75  1  0
 42 76  1  0
 16  1  1  0
M  CHG  2   2   1   3  -1
M  END
> <Name>
12 Hattie et al., 2015

> <Clean Energy>
478.442932128906

> <Reference>
Hattie et al., 2015

> <Forcefield>
MMFF

> <ForcefieldBase>
MMFF

> <ForcefieldFFML>
<?xml version="1.0" encoding="UTF-8"?>
<!DOCTYPE ffml SYSTEM "Ffml.dtd">
<ffml version="1.0">
<forcefield name="12 Hattie et al., 2015-MMFF" derivedFrom="MMFF" base="MMFF">
<atomTypes>
<atomType
 name="N100"
 element="N"
 mass="14.007"
 annotation=""/>
<atomType
 name="C101"
 element="C"
 mass="12.011"
 annotation=""/>
<atomType
 name="O102"
 element="O"
 mass="16"
 annotation=""/>
<atomType
 name="H103"
 element="H"
 mass="1.008"
 annotation=""/>
</atomTypes>
<parameters>
</parameters>
</forcefield>
</ffml>

$$$$
11 Hattie et al., 2015
  SciTegic07212313593D

 79 80  0  0  0  0            999 V2000
   22.7521  -17.8086   -0.3352 N   0  0
   23.7424  -18.4986   -0.1917 N   0  3
   24.7211  -19.1748   -0.0471 N   0  5
   15.6887  -13.9481    0.2917 C   0  0  1  0  0  0
   15.5452  -15.5209   -0.2791 C   0  0  1  0  0  0
   17.0581  -16.3489    0.2338 C   0  0  2  0  0  0
   18.3879  -15.4849   -0.2361 C   0  0  1  0  0  0
   18.2022  -14.1109    0.4736 O   0  0
   17.0328  -13.1237    0.0904 C   0  0  2  0  0  0
   17.1164  -11.7319    0.9453 C   0  0
   14.3804  -13.0563    0.3815 O   0  0
   14.3073  -16.2560    0.2557 O   0  0
   19.8057  -16.1017    0.1705 O   0  0
   17.0774  -17.8203   -0.2593 O   0  0
   21.2093  -15.4808   -0.2985 C   0  0  2  0  0  0
   22.5936  -16.3737    0.2454 C   0  0  2  0  0  0
   23.9487  -15.5828   -0.1225 C   0  0  1  0  0  0
   23.9901  -14.2604    0.4509 O   0  0
   22.9864  -13.3962    0.0014 C   0  0  1  0  0  0
   21.3254  -13.9936    0.2724 C   0  0  1  0  0  0
   20.0554  -13.1263   -0.3998 O   0  0
   18.2217  -10.7605    0.7337 O   0  0
   23.3020  -11.7786    0.8633 C   0  0
   24.2922  -10.8120    0.3262 O   0  0
   18.0347   -9.1892    0.3728 C   0  0
   19.0560   -8.4942    0.1654 O   0  0
   16.7653   -8.4865    0.1244 C   0  0
   14.2050  -11.6569    0.0781 C   0  0
   12.9112  -10.9980    0.2846 C   0  0
   15.0726  -10.9687   -0.4339 O   0  0
   12.9786  -15.6181    0.0751 C   0  0
   11.7150  -16.3717    0.3132 C   0  0
   12.8359  -14.4703   -0.3310 O   0  0
   18.3213  -18.6628   -0.0940 C   0  0
   18.2862  -20.1468   -0.2958 C   0  0
   19.4116  -18.2168    0.2396 O   0  0
   20.4174  -11.8450   -0.6302 C   0  0
   19.9490  -10.7462   -1.2610 C   0  0
   21.4422  -11.6170   -0.6169 O   0  0
   25.0987  -16.2864    0.4413 O   0  0
   26.3515  -15.6089    0.1471 C   0  0
   23.9235   -9.3539    0.0866 C   0  0
   25.0854   -8.4565   -0.1894 C   0  0
   22.7875   -8.8334    0.2001 O   0  0
   15.7991  -14.1742    1.3522 H   0  0
   15.5032  -15.5008   -1.3681 H   0  0
   17.0584  -16.3740    1.3235 H   0  0
   18.3570  -15.3380   -1.3157 H   0  0
   17.1268  -12.8793   -0.9677 H   0  0
   16.1900  -11.1926    0.7477 H   0  0
   17.1540  -12.0176    1.9965 H   0  0
   21.2264  -15.4391   -1.3876 H   0  0
   22.5359  -16.4548    1.3309 H   0  0
   24.0531  -15.5170   -1.2055 H   0  0
   23.1228  -13.2437   -1.0693 H   0  0
   21.1618  -14.0389    1.3491 H   0  0
   22.3466  -11.2555    0.9022 H   0  0
   23.6242  -12.0235    1.8754 H   0  0
   16.9666   -7.4375   -0.0926 H   0  0
   16.1305   -8.5590    1.0075 H   0  0
   16.2576   -8.9419   -0.7259 H   0  0
   12.9870   -9.9493   -0.0026 H   0  0
   12.6315  -11.0670    1.3359 H   0  0
   12.1521  -11.4874   -0.3257 H   0  0
   10.8617  -15.7203    0.1243 H   0  0
   11.6863  -16.7166    1.3468 H   0  0
   11.6714  -17.2301   -0.3572 H   0  0
   19.2809  -20.5602   -0.1295 H   0  0
   17.9669  -20.3680   -1.3142 H   0  0
   17.5852  -20.5934    0.4094 H   0  0
   20.6590   -9.9278   -1.1420 H   0  0
   18.9898  -10.4600   -0.8294 H   0  0
   19.8196  -10.9628   -2.3215 H   0  0
   27.1787  -16.1671    0.5854 H   0  0
   26.3290  -14.6036    0.5678 H   0  0
   26.4872  -15.5475   -0.9327 H   0  0
   24.7294   -7.4385   -0.3475 H   0  0
   25.6073   -8.8011   -1.0821 H   0  0
   25.7685   -8.4741    0.6599 H   0  0
  2  3  2  0
  1  2  2  0
  4  5  1  0
  5  6  1  0
  6  7  1  0
  7  8  1  0
  8  9  1  0
  9  4  1  0
  9 10  1  0
  4 11  1  0
  5 12  1  0
  7 13  1  0
  6 14  1  0
 15 13  1  0
 15 16  1  0
 16 17  1  0
 17 18  1  0
 18 19  1  0
 19 20  1  0
 20 15  1  0
 20 21  1  0
 10 22  1  0
 19 23  1  0
 23 24  1  0
 22 25  1  0
 25 26  2  0
 25 27  1  0
 11 28  1  0
 28 29  1  0
 28 30  2  0
 12 31  1  0
 31 32  1  0
 31 33  2  0
 14 34  1  0
 34 35  1  0
 34 36  2  0
 21 37  1  0
 37 38  1  0
 37 39  2  0
 17 40  1  0
 40 41  1  0
 24 42  1  0
 42 43  1  0
 42 44  2  0
  4 45  1  0
  5 46  1  0
  6 47  1  0
  7 48  1  0
  9 49  1  0
 10 50  1  0
 10 51  1  0
 15 52  1  0
 16 53  1  0
 17 54  1  0
 19 55  1  0
 20 56  1  0
 23 57  1  0
 23 58  1  0
 27 59  1  0
 27 60  1  0
 27 61  1  0
 29 62  1  0
 29 63  1  0
 29 64  1  0
 32 65  1  0
 32 66  1  0
 32 67  1  0
 35 68  1  0
 35 69  1  0
 35 70  1  0
 38 71  1  0
 38 72  1  0
 38 73  1  0
 41 74  1  0
 41 75  1  0
 41 76  1  0
 43 77  1  0
 43 78  1  0
 43 79  1  0
 16  1  1  0
M  CHG  2   2   1   3  -1
M  END
> <Name>
11 Hattie et al., 2015

> <Clean Energy>
376.745330810547

> <Reference>
Hattie et al., 2015

> <Forcefield>
MMFF

> <ForcefieldBase>
MMFF

> <ForcefieldFFML>
<?xml version="1.0" encoding="UTF-8"?>
<!DOCTYPE ffml SYSTEM "Ffml.dtd">
<ffml version="1.0">
<forcefield name="11 Hattie et al., 2015-MMFF" derivedFrom="MMFF" base="MMFF">
<atomTypes>
<atomType
 name="N100"
 element="N"
 mass="14.007"
 annotation=""/>
<atomType
 name="C101"
 element="C"
 mass="12.011"
 annotation=""/>
<atomType
 name="O102"
 element="O"
 mass="16"
 annotation=""/>
<atomType
 name="H103"
 element="H"
 mass="1.008"
 annotation=""/>
</atomTypes>
<parameters>
</parameters>
</forcefield>
</ffml>

$$$$
14 Hattie et al., 2015
  SciTegic07212313593D

 81 82  0  0  0  0            999 V2000
   28.6458  -22.6936   -0.4463 N   0  0
   29.6035  -23.4083   -0.2555 N   0  3
   30.5693  -24.0796   -0.0393 N   0  5
   21.5326  -18.8887    0.3338 C   0  0  1  0  0  0
   21.3689  -20.4366   -0.2639 C   0  0  1  0  0  0
   22.8920  -21.2463    0.2351 C   0  0  2  0  0  0
   24.2445  -20.3780   -0.2465 C   0  0  1  0  0  0
   24.0413  -18.9714    0.4586 O   0  0
   22.8457  -17.9997    0.1007 C   0  0  2  0  0  0
   22.9310  -16.6029    0.9719 C   0  0
   20.1986  -17.9650    0.3164 O   0  0
   20.1265  -21.1577    0.2588 O   0  0
   25.6713  -20.9835    0.1439 O   0  0
   22.9121  -22.7080   -0.2539 O   0  0
   27.0829  -20.3393   -0.3291 C   0  0  2  0  0  0
   28.4889  -21.2852    0.1340 C   0  0  2  0  0  0
   29.9254  -20.5080    0.0294 C   0  0
   30.0079  -19.0918    0.1601 O   0  0
   28.8430  -18.2874   -0.0567 C   0  0  1  0  0  0
   27.2123  -18.8979    0.3077 C   0  0  1  0  0  0
   25.9217  -18.0093   -0.2887 O   0  0
   24.0397  -15.6359    0.7428 O   0  0
   29.1701  -16.6887    0.8369 C   0  0
   30.1294  -15.6894    0.2896 O   0  0
   23.8713  -14.0703    0.3701 C   0  0
   24.9009  -13.3881    0.1546 O   0  0
   22.6104  -13.3609    0.1208 C   0  0
   20.0426  -16.5279    0.0445 C   0  0
   18.7535  -15.8619    0.2805 C   0  0
   20.9158  -15.8265   -0.4499 O   0  0
   18.8041  -20.5019    0.0783 C   0  0
   17.5399  -21.2539    0.3084 C   0  0
   18.6648  -19.3533   -0.3288 O   0  0
   24.1580  -23.5443   -0.0912 C   0  0
   24.1262  -25.0286   -0.2924 C   0  0
   25.2486  -23.0943    0.2369 O   0  0
   26.2840  -16.7345   -0.5974 C   0  0
   25.7804  -15.6635   -1.2174 C   0  0
   27.3140  -16.4918   -0.6626 O   0  0
   31.0701  -21.1574   -0.0048 N   0  0
   32.3531  -20.4703   -0.0051 O   0  0
   29.7520  -14.2320    0.0745 C   0  0
   30.9124  -13.3303   -0.1976 C   0  0
   28.6176  -13.7137    0.2095 O   0  0
   33.6394  -21.2794   -0.0061 C   0  0
   35.0042  -20.5695    0.0024 C   0  0
   33.6454  -22.5190   -0.0044 O   0  0
   21.6184  -19.0950    1.4007 H   0  0
   21.3264  -20.3961   -1.3523 H   0  0
   22.8991  -21.2726    1.3248 H   0  0
   24.2058  -20.2383   -1.3268 H   0  0
   22.9095  -17.7500   -0.9584 H   0  0
   22.0024  -16.0627    0.7873 H   0  0
   22.9811  -16.8923    2.0216 H   0  0
   27.0731  -20.2399   -1.4146 H   0  0
   28.3553  -21.4523    1.2028 H   0  0
   28.8412  -18.0424   -1.1188 H   0  0
   27.1060  -18.9839    1.3891 H   0  0
   28.2097  -16.1807    0.9257 H   0  0
   29.5332  -16.9564    1.8292 H   0  0
   22.8197  -12.3156   -0.1062 H   0  0
   21.9782  -13.4202    1.0068 H   0  0
   22.0957  -13.8195   -0.7236 H   0  0
   18.8366  -14.8063    0.0219 H   0  0
   18.4816  -15.9576    1.3317 H   0  0
   17.9851  -16.3272   -0.3370 H   0  0
   16.6883  -20.5990    0.1243 H   0  0
   17.5094  -21.6076    1.3390 H   0  0
   17.4951  -22.1064   -0.3694 H   0  0
   25.1224  -25.4393   -0.1285 H   0  0
   23.8050  -25.2510   -1.3100 H   0  0
   23.4282  -25.4768    0.4147 H   0  0
   26.5083  -14.8526   -1.1919 H   0  0
   24.8671  -15.3473   -0.7133 H   0  0
   25.5544  -15.9157   -2.2535 H   0  0
   30.5553  -12.3102   -0.3389 H   0  0
   31.4277  -13.6623   -1.0990 H   0  0
   31.6018  -13.3597    0.6462 H   0  0
   35.8011  -21.3132    0.0003 H   0  0
   35.0872  -19.9514    0.8964 H   0  0
   35.0927  -19.9404   -0.8833 H   0  0
  2  3  2  0
  1  2  2  0
  4  5  1  0
  5  6  1  0
  6  7  1  0
  7  8  1  0
  8  9  1  0
  9  4  1  0
  9 10  1  0
  4 11  1  0
  5 12  1  0
  7 13  1  0
  6 14  1  0
 15 13  1  0
 15 16  1  0
 16 17  1  0
 17 18  1  0
 18 19  1  0
 19 20  1  0
 20 15  1  0
 20 21  1  0
 10 22  1  0
 19 23  1  0
 23 24  1  0
 22 25  1  0
 25 26  2  0
 25 27  1  0
 11 28  1  0
 28 29  1  0
 28 30  2  0
 12 31  1  0
 31 32  1  0
 31 33  2  0
 14 34  1  0
 34 35  1  0
 34 36  2  0
 21 37  1  0
 37 38  1  0
 37 39  2  0
 17 40  2  0
 40 41  1  0
 24 42  1  0
 42 43  1  0
 42 44  2  0
 41 45  1  0
 45 46  1  0
 45 47  2  0
  4 48  1  0
  5 49  1  0
  6 50  1  0
  7 51  1  0
  9 52  1  0
 10 53  1  0
 10 54  1  0
 15 55  1  0
 16 56  1  0
 19 57  1  0
 20 58  1  0
 23 59  1  0
 23 60  1  0
 27 61  1  0
 27 62  1  0
 27 63  1  0
 29 64  1  0
 29 65  1  0
 29 66  1  0
 32 67  1  0
 32 68  1  0
 32 69  1  0
 35 70  1  0
 35 71  1  0
 35 72  1  0
 38 73  1  0
 38 74  1  0
 38 75  1  0
 43 76  1  0
 43 77  1  0
 43 78  1  0
 46 79  1  0
 46 80  1  0
 46 81  1  0
 16  1  1  0
M  CHG  2   2   1   3  -1
M  END
> <Name>
14 Hattie et al., 2015

> <Clean Energy>
419.088439941406

> <Reference>
Hattie et al., 2015

> <Forcefield>
MMFF

> <ForcefieldBase>
MMFF

> <ForcefieldFFML>
<?xml version="1.0" encoding="UTF-8"?>
<!DOCTYPE ffml SYSTEM "Ffml.dtd">
<ffml version="1.0">
<forcefield name="14 Hattie et al., 2015-MMFF" derivedFrom="MMFF" base="MMFF">
<atomTypes>
<atomType
 name="N100"
 element="N"
 mass="14.007"
 annotation=""/>
<atomType
 name="C101"
 element="C"
 mass="12.011"
 annotation=""/>
<atomType
 name="O102"
 element="O"
 mass="16"
 annotation=""/>
<atomType
 name="H103"
 element="H"
 mass="1.008"
 annotation=""/>
</atomTypes>
<parameters>
</parameters>
</forcefield>
</ffml>

$$$$
16 Hattie et al., 2015
  SciTegic07212313593D

 90 92  0  0  0  0            999 V2000
   22.2918  -24.0557   -0.4503 N   0  0
   23.2517  -24.7621   -0.2499 N   0  3
   24.2080  -25.4480   -0.0417 N   0  5
   15.2749  -20.2441    0.2702 C   0  0  1  0  0  0
   15.1086  -21.7870   -0.2078 C   0  0  1  0  0  0
   16.5735  -22.6160    0.2695 C   0  0  2  0  0  0
   17.8888  -21.7331   -0.2345 C   0  0  1  0  0  0
   17.7501  -20.3963    0.4444 O   0  0
   16.6262  -19.5595    0.0486 C   0  0  2  0  0  0
   16.6442  -18.0584    0.9197 C   0  0
   13.8880  -19.4243    0.4906 O   0  0
   13.8266  -22.5003    0.3465 O   0  0
   19.3240  -22.3490    0.1291 O   0  0
   16.5651  -24.0647   -0.2430 O   0  0
   20.7349  -21.6993   -0.3389 C   0  0  2  0  0  0
   22.1469  -22.6454    0.1306 C   0  0  2  0  0  0
   23.6057  -21.8604    0.0293 C   0  0
   23.6662  -20.4456    0.1606 O   0  0
   22.4920  -19.6484   -0.0576 C   0  0  1  0  0  0
   20.8575  -20.2530    0.3004 C   0  0  1  0  0  0
   19.5642  -19.3437   -0.3117 O   0  0
   17.7068  -17.0061    0.7045 O   0  0
   22.8200  -18.0502    0.8407 C   0  0
   23.7720  -17.0495    0.2880 O   0  0
   17.4998  -15.4263    0.3654 C   0  0
   18.5148  -14.7174    0.1643 O   0  0
   16.2299  -14.7326    0.1293 C   0  0
   13.7033  -17.9182    0.1139 C   0  0
   12.3910  -17.2649    0.2140 C   0  0
   14.5874  -17.1985   -0.3581 O   0  0
   12.4893  -21.8512    0.1152 C   0  0
   11.2099  -22.6073    0.3097 C   0  0
   12.3573  -20.7102   -0.3202 O   0  0
   17.8008  -24.9065   -0.0948 C   0  0
   17.7616  -26.3900   -0.3034 C   0  0
   18.8893  -24.4621    0.2457 O   0  0
   19.9383  -18.0667   -0.6050 C   0  0
   19.4729  -16.9497   -1.2162 C   0  0
   20.9644  -17.8533   -0.6494 O   0  0
   24.7712  -22.5041   -0.0035 N   0  0
   26.1312  -21.8275   -0.0032 O   0  0
   23.3925  -15.5935    0.0740 C   0  0
   24.5525  -14.6922   -0.1982 C   0  0
   22.2585  -15.0751    0.2120 O   0  0
   27.4729  -22.6886   -0.0052 C   0  0
   28.8937  -22.0433   -0.0011 N   0  0
   27.4029  -23.9230   -0.0055 O   0  0
   30.2681  -22.7749    0.0008 C   0  0
   30.3610  -24.1101    0.0000 C   0  0
   31.6957  -24.7968   -0.0002 C   0  0
   32.8310  -24.0969   -0.0002 C   0  0
   32.7700  -22.6325    0.0008 C   0  0
   31.5815  -22.0004    0.0015 C   0  0
   15.4375  -20.4716    1.3237 H   0  0
   15.0554  -21.7980   -1.2965 H   0  0
   16.5950  -22.6501    1.3588 H   0  0
   17.8274  -21.5906   -1.3134 H   0  0
   16.7250  -19.3375   -1.0140 H   0  0
   15.6914  -17.5738    0.7068 H   0  0
   16.6900  -18.3225    1.9763 H   0  0
   20.7286  -21.5999   -1.4244 H   0  0
   22.0100  -22.8123    1.1990 H   0  0
   22.4927  -19.4001   -1.1189 H   0  0
   20.7449  -20.3377    1.3813 H   0  0
   21.8590  -17.5449    0.9378 H   0  0
   23.1910  -18.3195    1.8296 H   0  0
   16.4228  -13.6790   -0.0724 H   0  0
   15.5964  -14.8229    1.0118 H   0  0
   15.7249  -15.1794   -0.7272 H   0  0
   12.4790  -16.2228   -0.0928 H   0  0
   12.0392  -17.3112    1.2447 H   0  0
   11.6799  -17.7755   -0.4355 H   0  0
   10.3648  -21.9548    0.0904 H   0  0
   11.1441  -22.9517    1.3418 H   0  0
   11.1891  -23.4659   -0.3615 H   0  0
   18.7572  -26.8057   -0.1485 H   0  0
   17.4324  -26.6059   -1.3198 H   0  0
   17.0666  -26.8390    0.4063 H   0  0
   20.2268  -16.1644   -1.1622 H   0  0
   18.5633  -16.6144   -0.7178 H   0  0
   19.2538  -17.1710   -2.2608 H   0  0
   24.1955  -13.6720   -0.3391 H   0  0
   25.0674  -15.0241   -1.0999 H   0  0
   25.2422  -14.7219    0.6453 H   0  0
   28.9273  -20.9739    0.0008 H   0  0
   29.4508  -24.7098   -0.0004 H   0  0
   31.7378  -25.8860   -0.0004 H   0  0
   33.7935  -24.6083   -0.0009 H   0  0
   33.6925  -22.0519    0.0010 H   0  0
   31.5576  -20.9107    0.0025 H   0  0
  2  3  2  0
  1  2  2  0
  4  5  1  0
  5  6  1  0
  6  7  1  0
  7  8  1  0
  8  9  1  0
  9  4  1  0
  9 10  1  0
  4 11  1  0
  5 12  1  0
  7 13  1  0
  6 14  1  0
 15 13  1  0
 15 16  1  0
 16 17  1  0
 17 18  1  0
 18 19  1  0
 19 20  1  0
 20 15  1  0
 20 21  1  0
 10 22  1  0
 19 23  1  0
 23 24  1  0
 22 25  1  0
 25 26  2  0
 25 27  1  0
 11 28  1  0
 28 29  1  0
 28 30  2  0
 12 31  1  0
 31 32  1  0
 31 33  2  0
 14 34  1  0
 34 35  1  0
 34 36  2  0
 21 37  1  0
 37 38  1  0
 37 39  2  0
 17 40  2  0
 40 41  1  0
 24 42  1  0
 42 43  1  0
 42 44  2  0
 41 45  1  0
 45 46  1  0
 45 47  2  0
 46 48  1  0
 48 49  2  0
 49 50  1  0
 50 51  2  0
 51 52  1  0
 52 53  2  0
 53 48  1  0
  4 54  1  0
  5 55  1  0
  6 56  1  0
  7 57  1  0
  9 58  1  0
 10 59  1  0
 10 60  1  0
 15 61  1  0
 16 62  1  0
 19 63  1  0
 20 64  1  0
 23 65  1  0
 23 66  1  0
 27 67  1  0
 27 68  1  0
 27 69  1  0
 29 70  1  0
 29 71  1  0
 29 72  1  0
 32 73  1  0
 32 74  1  0
 32 75  1  0
 35 76  1  0
 35 77  1  0
 35 78  1  0
 38 79  1  0
 38 80  1  0
 38 81  1  0
 43 82  1  0
 43 83  1  0
 43 84  1  0
 46 85  1  0
 49 86  1  0
 50 87  1  0
 51 88  1  0
 52 89  1  0
 53 90  1  0
 16  1  1  0
M  CHG  2   2   1   3  -1
M  END
> <Name>
16 Hattie et al., 2015

> <Clean Energy>
396.901519775391

> <Reference>
Hattie et al., 2015

> <Forcefield>
MMFF

> <ForcefieldBase>
MMFF

> <ForcefieldFFML>
<?xml version="1.0" encoding="UTF-8"?>
<!DOCTYPE ffml SYSTEM "Ffml.dtd">
<ffml version="1.0">
<forcefield name="16 Hattie et al., 2015-MMFF" derivedFrom="MMFF" base="MMFF">
<atomTypes>
<atomType
 name="N100"
 element="N"
 mass="14.007"
 annotation=""/>
<atomType
 name="C101"
 element="C"
 mass="12.011"
 annotation=""/>
<atomType
 name="O102"
 element="O"
 mass="16"
 annotation=""/>
<atomType
 name="H103"
 element="H"
 mass="1.008"
 annotation=""/>
</atomTypes>
<parameters>
</parameters>
</forcefield>
</ffml>

$$$$
10 Hattie et al., 2015
  SciTegic07212313593D

 69 70  0  0  0  0            999 V2000
   20.1083  -24.1133   -0.4375 N   0  0
   21.0835  -24.8064   -0.2387 N   0  3
   22.0414  -25.4983   -0.0491 N   0  5
   13.1044  -20.2842    0.2985 C   0  0  1  0  0  0
   12.8644  -21.8328   -0.0849 C   0  0  1  0  0  0
   14.4085  -22.6541    0.3183 C   0  0  2  0  0  0
   15.7559  -21.7932   -0.2348 C   0  0  1  0  0  0
   15.6364  -20.3669    0.3568 O   0  0
   14.4651  -19.4369   -0.0135 C   0  0  2  0  0  0
   14.7437  -17.9702    0.7385 C   0  0
   11.7718  -19.3806    0.1279 O   0  0
   11.6468  -22.5295    0.4879 O   0  0
   17.1695  -22.4216    0.1626 O   0  0
   14.4011  -24.1255   -0.1900 O   0  0
   18.5384  -21.8159   -0.3570 C   0  0  2  0  0  0
   19.9434  -22.6815    0.1420 C   0  0  2  0  0  0
   21.2188  -21.8172   -0.2897 C   0  0  1  0  0  0
   21.1234  -20.4309    0.3224 O   0  0
   19.9612  -19.6341   -0.1877 C   0  0  1  0  0  0
   18.6131  -20.3392    0.1711 C   0  0  1  0  0  0
   17.5856  -19.5396   -0.4334 O   0  0
   15.9280  -17.1788    0.2853 O   0  0
   19.9203  -18.1670    0.4563 C   0  0
   21.1032  -17.3794    0.1665 O   0  0
   15.7669  -15.6885    0.0911 C   0  0
   16.7798  -15.0183   -0.1508 O   0  0
   14.4424  -14.9260    0.1740 C   0  0
   11.5992  -17.9150    0.0171 C   0  0
   10.2470  -17.3028    0.0662 C   0  0
   12.4987  -17.1313   -0.1657 O   0  0
   10.3227  -21.9102    0.1706 C   0  0
    9.0510  -22.6802    0.3194 C   0  0
   10.1995  -20.7865   -0.3024 O   0  0
   15.6530  -24.9702   -0.0840 C   0  0
   15.6157  -26.4526   -0.3024 C   0  0
   16.7502  -24.5303    0.2332 O   0  0
   22.4437  -22.5315    0.1835 O   0  0
   23.6912  -21.8455   -0.1147 C   0  0
   13.1590  -20.3546    1.3849 H   0  0
   12.7644  -21.8730   -1.1695 H   0  0
   14.4768  -22.6914    1.4055 H   0  0
   15.7007  -21.7236   -1.3212 H   0  0
   14.5073  -19.2678   -1.0895 H   0  0
   13.8594  -17.3515    0.5859 H   0  0
   14.8704  -18.1676    1.8029 H   0  0
   18.5151  -21.7929   -1.4465 H   0  0
   19.9318  -22.7528    1.2296 H   0  0
   21.2469  -21.7318   -1.3760 H   0  0
   20.0389  -19.5451   -1.2713 H   0  0
   18.4820  -20.3365    1.2532 H   0  0
   17.6236  -18.5658   -0.0422 H   0  0
   19.0501  -17.6411    0.0634 H   0  0
   19.8276  -18.2666    1.5377 H   0  0
   21.9513  -17.8676    0.5472 H   0  0
   14.6207  -13.8661   -0.0071 H   0  0
   14.0088  -15.0567    1.1656 H   0  0
   13.7530  -15.3115   -0.5772 H   0  0
   10.3338  -16.2207   -0.0315 H   0  0
    9.7726  -17.5442    1.0174 H   0  0
    9.6408  -17.6934   -0.7512 H   0  0
    8.2082  -22.0486    0.0386 H   0  0
    8.9369  -22.9976    1.3559 H   0  0
    9.0787  -23.5570   -0.3277 H   0  0
   16.6176  -26.8637   -0.1796 H   0  0
   15.2582  -26.6629   -1.3104 H   0  0
   14.9441  -26.9106    0.4239 H   0  0
   24.5284  -22.4323    0.2632 H   0  0
   23.6906  -20.8654    0.3624 H   0  0
   23.7909  -21.7240   -1.1933 H   0  0
  2  3  2  0
  1  2  2  0
  4  5  1  0
  5  6  1  0
  6  7  1  0
  7  8  1  0
  8  9  1  0
  9  4  1  0
  9 10  1  0
  4 11  1  0
  5 12  1  0
  7 13  1  0
  6 14  1  0
 15 13  1  0
 15 16  1  0
 16 17  1  0
 17 18  1  0
 18 19  1  0
 19 20  1  0
 20 15  1  0
 20 21  1  0
 10 22  1  0
 19 23  1  0
 23 24  1  0
 22 25  1  0
 25 26  2  0
 25 27  1  0
 11 28  1  0
 28 29  1  0
 28 30  2  0
 12 31  1  0
 31 32  1  0
 31 33  2  0
 14 34  1  0
 34 35  1  0
 34 36  2  0
 17 37  1  0
 37 38  1  0
  4 39  1  0
  5 40  1  0
  6 41  1  0
  7 42  1  0
  9 43  1  0
 10 44  1  0
 10 45  1  0
 15 46  1  0
 16 47  1  0
 17 48  1  0
 19 49  1  0
 20 50  1  0
 21 51  1  0
 23 52  1  0
 23 53  1  0
 24 54  1  0
 27 55  1  0
 27 56  1  0
 27 57  1  0
 29 58  1  0
 29 59  1  0
 29 60  1  0
 32 61  1  0
 32 62  1  0
 32 63  1  0
 35 64  1  0
 35 65  1  0
 35 66  1  0
 38 67  1  0
 38 68  1  0
 38 69  1  0
 16  1  1  0
M  CHG  2   2   1   3  -1
M  END
> <Name>
10 Hattie et al., 2015

> <Clean Energy>
198.276275634766

> <Reference>
Hattie et al., 2015

> <Forcefield>
MMFF

> <ForcefieldBase>
MMFF

> <ForcefieldFFML>
<?xml version="1.0" encoding="UTF-8"?>
<!DOCTYPE ffml SYSTEM "Ffml.dtd">
<ffml version="1.0">
<forcefield name="10 Hattie et al., 2015-MMFF" derivedFrom="MMFF" base="MMFF">
<atomTypes>
<atomType
 name="N100"
 element="N"
 mass="14.007"
 annotation=""/>
<atomType
 name="C101"
 element="C"
 mass="12.011"
 annotation=""/>
<atomType
 name="O102"
 element="O"
 mass="16"
 annotation=""/>
<atomType
 name="H103"
 element="H"
 mass="1.008"
 annotation=""/>
</atomTypes>
<parameters>
</parameters>
</forcefield>
</ffml>

$$$$
9 Hattie et al., 2015
  SciTegic07212313593D

 80 83  0  0  0  0            999 V2000
   22.8492  -24.5806   -0.4179 N   0  0
   23.8260  -25.2855   -0.2377 N   0  3
   24.7947  -25.9699   -0.0518 N   0  5
   18.8732  -17.5593   -0.7764 C   0  0
   18.8096  -16.4200   -1.4214 C   0  0
   17.2940  -15.7493   -1.6924 C   0  0
   16.2173  -16.2664   -1.1533 C   0  0
   16.5632  -17.3444   -0.6743 C   0  0
   17.7868  -17.8911   -0.5829 C   0  0
   19.7140  -15.9224   -1.7716 H   0  0
   17.2042  -14.8684   -2.3280 H   0  0
   15.2188  -15.8297   -1.1336 H   0  0
   15.7548  -17.9478   -0.2614 H   0  0
   17.7394  -18.9223   -0.2329 H   0  0
   15.6534  -21.1003    0.5433 C   0  0  1  0  0  0
   15.6528  -22.4126   -0.2044 C   0  0  1  0  0  0
   17.1675  -23.1927    0.2703 C   0  0  2  0  0  0
   18.4541  -22.2974   -0.1656 C   0  0  1  0  0  0
   18.2153  -21.0200    0.6185 O   0  0
   16.9303  -20.3099    0.4998 C   0  0  2  0  0  0
   16.8969  -18.4528    1.9944 C   0  0
   14.3981  -20.1642    0.9291 O   0  0
   14.4206  -23.1338    0.2857 O   0  0
   19.8815  -22.8970    0.2521 O   0  0
   17.1986  -24.6242   -0.2532 O   0  0
   21.2222  -22.2669   -0.2536 C   0  0  2  0  0  0
   22.6813  -23.1414    0.1626 C   0  0  2  0  0  0
   23.9285  -22.2795   -0.3394 C   0  0  1  0  0  0
   23.8273  -20.8652    0.2026 O   0  0
   22.5868  -20.1051   -0.2642 C   0  0  1  0  0  0
   21.2957  -20.7489    0.2657 C   0  0  1  0  0  0
   18.0493  -16.7120    1.6437 O   0  0
   17.9362  -14.8773    1.0855 C   0  0
   18.9325  -14.3584    0.4346 O   0  0
   16.6231  -13.9352    0.9914 C   0  0
   14.0609  -18.9469    0.0708 C   0  0
   12.9903  -17.9370    0.4160 C   0  0
   14.6029  -18.7557   -1.0059 O   0  0
   13.0896  -22.4437    0.0763 C   0  0
   11.8206  -23.1731    0.3060 C   0  0
   12.9607  -21.2994   -0.3625 O   0  0
   18.4342  -25.4576   -0.0962 C   0  0
   18.3921  -26.9386   -0.2988 C   0  0
   19.5262  -25.0132    0.2322 O   0  0
   25.1742  -22.9892    0.1463 O   0  0
   26.4355  -22.3228   -0.1466 C   0  0
   22.5383  -18.5985    0.2460 C   0  0
   21.3903  -17.8707   -0.3322 O   0  0
   20.1498  -18.4518   -0.0525 C   0  0  2  0  0  0
   20.1422  -19.9427   -0.3003 O   0  0
   15.8029  -21.5233    1.5367 H   0  0
   15.6130  -22.2522   -1.2818 H   0  0
   17.1710  -23.2496    1.3588 H   0  0
   18.4280  -22.0942   -1.2362 H   0  0
   16.9489  -19.8657   -0.4954 H   0  0
   15.8588  -18.1254    2.0512 H   0  0
   17.2110  -18.8364    2.9651 H   0  0
   21.1693  -22.2313   -1.3418 H   0  0
   22.7346  -23.2088    1.2492 H   0  0
   23.9316  -22.2495   -1.4290 H   0  0
   22.5607  -20.1090   -1.3539 H   0  0
   21.2783  -20.7206    1.3552 H   0  0
   16.9102  -12.9453    0.6368 H   0  0
   16.1658  -13.8490    1.9771 H   0  0
   15.9080  -14.3761    0.2968 H   0  0
   12.9512  -17.1696   -0.3570 H   0  0
   13.2225  -17.4742    1.3752 H   0  0
   12.0243  -18.4380    0.4791 H   0  0
   10.9787  -22.5110    0.1038 H   0  0
   11.7768  -23.5097    1.3418 H   0  0
   11.7715  -24.0358   -0.3584 H   0  0
   19.3862  -27.3560   -0.1395 H   0  0
   18.0653  -27.1576   -1.3154 H   0  0
   17.6940  -27.3832    0.4105 H   0  0
   27.2607  -22.9171    0.2456 H   0  0
   26.4436  -21.3379    0.3205 H   0  0
   26.5474  -22.2137   -1.2253 H   0  0
   22.4498  -18.5947    1.3324 H   0  0
   23.4603  -18.0955   -0.0457 H   0  0
   20.0113  -18.3359    1.0224 H   0  0
  2  3  2  0
  1  2  2  0
  8  9  2  0
  7  8  1  0
  6  7  2  0
  5  6  1  0
  4  5  2  0
  4  9  1  0
  5 10  1  0
  6 11  1  0
  7 12  1  0
  8 13  1  0
  9 14  1  0
 15 16  1  0
 16 17  1  0
 17 18  1  0
 18 19  1  0
 19 20  1  0
 20 15  1  0
 20 21  1  0
 15 22  1  0
 16 23  1  0
 18 24  1  0
 17 25  1  0
 26 24  1  0
 26 27  1  0
 27 28  1  0
 28 29  1  0
 29 30  1  0
 30 31  1  0
 31 26  1  0
 21 32  1  0
 32 33  1  0
 33 34  2  0
 33 35  1  0
 22 36  1  0
 36 37  1  0
 36 38  2  0
 23 39  1  0
 39 40  1  0
 39 41  2  0
 25 42  1  0
 42 43  1  0
 42 44  2  0
 28 45  1  0
 45 46  1  0
 30 47  1  0
 47 48  1  0
 48 49  1  0
 49 50  1  0
 50 31  1  0
 15 51  1  0
 16 52  1  0
 17 53  1  0
 18 54  1  0
 20 55  1  0
 21 56  1  0
 21 57  1  0
 26 58  1  0
 27 59  1  0
 28 60  1  0
 30 61  1  0
 31 62  1  0
 35 63  1  0
 35 64  1  0
 35 65  1  0
 37 66  1  0
 37 67  1  0
 37 68  1  0
 40 69  1  0
 40 70  1  0
 40 71  1  0
 43 72  1  0
 43 73  1  0
 43 74  1  0
 46 75  1  0
 46 76  1  0
 46 77  1  0
 47 78  1  0
 47 79  1  0
 49 80  1  0
 27  1  1  0
 49  4  1  0
M  CHG  2   2   1   3  -1
M  END
> <Name>
9 Hattie et al., 2015

> <Clean Energy>
541.070129394531

> <Reference>
Hattie et al., 2015

> <Forcefield>
MMFF

> <ForcefieldBase>
MMFF

> <ForcefieldFFML>
<?xml version="1.0" encoding="UTF-8"?>
<!DOCTYPE ffml SYSTEM "Ffml.dtd">
<ffml version="1.0">
<forcefield name="9 Hattie et al., 2015-MMFF" derivedFrom="MMFF" base="MMFF">
<atomTypes>
<atomType
 name="N100"
 element="N"
 mass="14.007"
 annotation=""/>
<atomType
 name="C101"
 element="C"
 mass="12.011"
 annotation=""/>
<atomType
 name="H102"
 element="H"
 mass="1.008"
 annotation=""/>
<atomType
 name="O103"
 element="O"
 mass="16"
 annotation=""/>
</atomTypes>
<parameters>
</parameters>
</forcefield>
</ffml>

$$$$
7 Hattie et al., 2015
  SciTegic07212313593D

 39 41  0  0  0  0            999 V2000
   17.4782  -17.2565   -0.2357 N   0  0
   18.4615  -17.9525   -0.1471 N   0  3
   19.4313  -18.6428   -0.0612 N   0  5
   15.8658  -13.4483    0.3043 C   0  0  1  0  0  0
   15.9236  -15.0401   -0.1585 C   0  0  1  0  0  0
   17.3429  -15.7958    0.3047 C   0  0  2  0  0  0
   18.5882  -14.9581   -0.1634 C   0  0  1  0  0  0
   18.4191  -13.4973    0.2980 O   0  0
   17.1415  -12.7678   -0.2593 C   0  0  2  0  0  0
   17.0467  -11.2140    0.1628 C   0  0
   15.7925  -10.5029   -0.3588 O   0  0
   14.5458  -11.1428    0.1474 C   0  0  2  0  0  0
   14.5714  -12.6617   -0.2065 O   0  0
   19.7870  -15.6331    0.4444 O   0  0
   21.0596  -15.0321    0.1158 C   0  0
   14.7919  -15.7488    0.4182 O   0  0
   13.1166  -10.2741   -0.1078 C   0  0
   13.1088   -8.9228   -0.1202 C   0  0
   11.8103   -8.1375   -0.1577 C   0  0
   10.6367   -8.7688   -0.1254 C   0  0
   10.6232  -10.2367   -0.1030 C   0  0
   11.7701  -10.9447   -0.1062 C   0  0
   15.8966  -13.4001    1.3928 H   0  0
   15.8448  -15.0878   -1.2446 H   0  0
   17.3590  -15.8391    1.3938 H   0  0
   18.6627  -14.9913   -1.2503 H   0  0
   17.1344  -12.8427   -1.3467 H   0  0
   17.0473  -11.1538    1.2512 H   0  0
   17.9223  -10.6977   -0.2307 H   0  0
   14.6683  -11.1272    1.2304 H   0  0
   21.8611  -15.5894    0.6005 H   0  0
   21.0745  -13.9990    0.4632 H   0  0
   21.2042  -15.0539   -0.9643 H   0  0
   14.8353  -15.6853    1.4654 H   0  0
   14.0565   -8.3845   -0.1029 H   0  0
   11.8378   -7.0491   -0.2114 H   0  0
    9.7037   -8.2052   -0.1159 H   0  0
    9.6690  -10.7632   -0.0833 H   0  0
   11.7205  -12.0336   -0.1078 H   0  0
  2  3  2  0
  1  2  2  0
  4  5  1  0
  5  6  1  0
  6  7  1  0
  7  8  1  0
  8  9  1  0
  9  4  1  0
  9 10  1  0
 10 11  1  0
 11 12  1  0
 12 13  1  0
 13  4  1  0
  7 14  1  0
 14 15  1  0
  5 16  1  0
 12 17  1  0
 17 18  2  0
 18 19  1  0
 19 20  2  0
 20 21  1  0
 21 22  2  0
 22 17  1  0
  4 23  1  0
  5 24  1  0
  6 25  1  0
  7 26  1  0
  9 27  1  0
 10 28  1  0
 10 29  1  0
 12 30  1  0
 15 31  1  0
 15 32  1  0
 15 33  1  0
 16 34  1  0
 18 35  1  0
 19 36  1  0
 20 37  1  0
 21 38  1  0
 22 39  1  0
  6  1  1  0
M  CHG  2   2   1   3  -1
M  END
> <Name>
7 Hattie et al., 2015

> <Clean Energy>
45.8138656616211

> <Reference>
Hattie et al., 2015

> <Forcefield>
MMFF

> <ForcefieldBase>
MMFF

> <ForcefieldFFML>
<?xml version="1.0" encoding="UTF-8"?>
<!DOCTYPE ffml SYSTEM "Ffml.dtd">
<ffml version="1.0">
<forcefield name="7 Hattie et al., 2015-MMFF" derivedFrom="MMFF" base="MMFF">
<atomTypes>
<atomType
 name="N100"
 element="N"
 mass="14.007"
 annotation=""/>
<atomType
 name="C101"
 element="C"
 mass="12.011"
 annotation=""/>
<atomType
 name="O102"
 element="O"
 mass="16"
 annotation=""/>
<atomType
 name="H103"
 element="H"
 mass="1.008"
 annotation=""/>
</atomTypes>
<parameters>
</parameters>
</forcefield>
</ffml>

$$$$
15 Hattie et al., 2015
  SciTegic07212313593D

 86 87  0  0  0  0            999 V2000
   28.0341  -22.4779    0.0840 N   0  0
   26.1116  -22.7552   -1.0479 O   0  0
   27.1536  -23.2231   -0.5830 C   0  0
   27.4502  -24.6860   -0.7678 C   0  0
   28.9014  -22.9954    0.4375 H   0  0
   28.4036  -24.9262   -0.2975 H   0  0
   27.5028  -24.9149   -1.8323 H   0  0
   26.6593  -25.2785   -0.3079 H   0  0
   21.5137  -18.8220   -0.2226 C   0  0  2  0  0  0
   21.6705  -20.2986   -0.5369 C   0  0  1  0  0  0
   22.9057  -20.8381    0.1924 C   0  0  2  0  0  0
   24.2101  -20.0624   -0.3689 C   0  0  1  0  0  0
   24.0146  -18.6044   -0.1018 O   0  0
   22.7850  -18.0807   -0.7866 C   0  0  2  0  0  0
   22.5402  -16.5623   -0.5466 C   0  0
   21.2915  -18.6842    1.2100 O   0  0
   20.5059  -21.0177   -0.0070 O   0  0
   25.4714  -20.6187    0.2799 O   0  0
   22.8762  -22.2648   -0.1110 O   0  0
   26.8228  -20.0965   -0.1813 C   0  0  2  0  0  0
   27.9795  -21.0408    0.4024 C   0  0  2  0  0  0
   29.3836  -20.5038    0.1506 C   0  0
   29.6742  -19.1767   -0.0498 O   0  0
   28.6103  -18.2972   -0.3131 C   0  0  1  0  0  0
   27.2007  -18.6759    0.4008 C   0  0  1  0  0  0
   26.2459  -17.6239    0.0333 O   0  0
   23.4625  -15.6351   -1.0658 O   0  0
   29.1408  -16.8945    0.0652 C   0  0
   30.2313  -16.3725   -0.6307 O   0  0
   23.0479  -14.3207   -0.6470 C   0  0
   23.7226  -13.3373   -0.9718 O   0  0
   21.8547  -14.1218    0.2675 C   0  0
   20.4568  -17.5857    1.5768 C   0  0
   20.1675  -17.3032    3.0152 C   0  0
   19.9203  -16.8860    0.7031 O   0  0
   19.2656  -20.6922   -0.6261 C   0  0
   18.0115  -21.3444   -0.1169 C   0  0
   19.1889  -19.8972   -1.5645 O   0  0
   23.7359  -23.0630    0.6328 C   0  0
   23.7112  -24.5515    0.4053 C   0  0
   24.4622  -22.5859    1.5052 O   0  0
   26.3177  -16.5347    0.9782 C   0  0
   25.8298  -15.1940    0.6419 C   0  0
   26.9688  -16.6599    2.0189 O   0  0
   30.3987  -21.2650    0.2144 N   0  0
   31.5742  -20.6595    0.0243 O   0  0
   30.2157  -15.0170   -0.2471 C   0  0
   31.1972  -14.0417   -0.8113 C   0  0
   29.3484  -14.6180    0.5453 O   0  0
   32.6447  -21.5330    0.0902 C   0  0
   34.0397  -21.0042   -0.1051 C   0  0
   32.4601  -22.7344    0.3031 O   0  0
   20.6342  -18.4481   -0.7468 H   0  0
   21.7611  -20.4545   -1.6119 H   0  0
   22.8073  -20.6800    1.2664 H   0  0
   24.2729  -20.2162   -1.4461 H   0  0
   22.8636  -18.2669   -1.8577 H   0  0
   21.5684  -16.3228   -0.9783 H   0  0
   22.5066  -16.4103    0.5322 H   0  0
   26.8665  -20.0793   -1.2702 H   0  0
   27.8545  -20.9991    1.4844 H   0  0
   28.4420  -18.3025   -1.3900 H   0  0
   27.3199  -18.7244    1.4832 H   0  0
   28.3149  -16.1952   -0.0650 H   0  0
   29.4226  -16.9330    1.1174 H   0  0
   21.7159  -13.0577    0.4584 H   0  0
   22.0288  -14.6399    1.2107 H   0  0
   20.9605  -14.5247   -0.2082 H   0  0
   19.5172  -16.4317    3.0912 H   0  0
   21.1011  -17.1063    3.5423 H   0  0
   19.6727  -18.1651    3.4629 H   0  0
   17.1572  -20.9903   -0.6937 H   0  0
   17.8702  -21.0907    0.9337 H   0  0
   18.0961  -22.4262   -0.2208 H   0  0
   24.4378  -25.0319    1.0605 H   0  0
   23.9627  -24.7650   -0.6336 H   0  0
   22.7152  -24.9366    0.6240 H   0  0
   25.9786  -14.5287    1.4923 H   0  0
   24.7678  -15.2430    0.4011 H   0  0
   26.3797  -14.8119   -0.2183 H   0  0
   31.0144  -13.0546   -0.3868 H   0  0
   31.0844  -13.9973   -1.8945 H   0  0
   32.2099  -14.3608   -0.5646 H   0  0
   34.7542  -21.8230   -0.0214 H   0  0
   34.2549  -20.2554    0.6573 H   0  0
   34.1218  -20.5504   -1.0928 H   0  0
  3  4  1  0
  2  3  2  0
  1  3  1  0
  1  5  1  0
  4  6  1  0
  4  7  1  0
  4  8  1  0
  9 10  1  0
 10 11  1  0
 11 12  1  0
 12 13  1  0
 13 14  1  0
 14  9  1  0
 14 15  1  0
  9 16  1  0
 10 17  1  0
 12 18  1  0
 11 19  1  0
 20 18  1  0
 20 21  1  0
 21 22  1  0
 22 23  1  0
 23 24  1  0
 24 25  1  0
 25 20  1  0
 25 26  1  0
 15 27  1  0
 24 28  1  0
 28 29  1  0
 27 30  1  0
 30 31  2  0
 30 32  1  0
 16 33  1  0
 33 34  1  0
 33 35  2  0
 17 36  1  0
 36 37  1  0
 36 38  2  0
 19 39  1  0
 39 40  1  0
 39 41  2  0
 26 42  1  0
 42 43  1  0
 42 44  2  0
 22 45  2  0
 45 46  1  0
 29 47  1  0
 47 48  1  0
 47 49  2  0
 46 50  1  0
 50 51  1  0
 50 52  2  0
  9 53  1  0
 10 54  1  0
 11 55  1  0
 12 56  1  0
 14 57  1  0
 15 58  1  0
 15 59  1  0
 20 60  1  0
 21 61  1  0
 24 62  1  0
 25 63  1  0
 28 64  1  0
 28 65  1  0
 32 66  1  0
 32 67  1  0
 32 68  1  0
 34 69  1  0
 34 70  1  0
 34 71  1  0
 37 72  1  0
 37 73  1  0
 37 74  1  0
 40 75  1  0
 40 76  1  0
 40 77  1  0
 43 78  1  0
 43 79  1  0
 43 80  1  0
 48 81  1  0
 48 82  1  0
 48 83  1  0
 51 84  1  0
 51 85  1  0
 51 86  1  0
 21  1  1  0
M  END
> <Name>
15 Hattie et al., 2015

> <Clean Energy>
68.5127334594727

> <Reference>
Hattie et al., 2015

> <Forcefield>
MMFF

> <ForcefieldBase>
MMFF

> <ForcefieldFFML>
<?xml version="1.0" encoding="UTF-8"?>
<!DOCTYPE ffml SYSTEM "Ffml.dtd">
<ffml version="1.0">
<forcefield name="15 Hattie et al., 2015-MMFF" derivedFrom="MMFF" base="MMFF">
<atomTypes>
<atomType
 name="N100"
 element="N"
 mass="14.007"
 annotation=""/>
<atomType
 name="O101"
 element="O"
 mass="16"
 annotation=""/>
<atomType
 name="C102"
 element="C"
 mass="12.011"
 annotation=""/>
<atomType
 name="H103"
 element="H"
 mass="1.008"
 annotation=""/>
</atomTypes>
<parameters>
</parameters>
</forcefield>
</ffml>

$$$$
17 Hattie et al., 2015
  SciTegic07212313593D

 95 97  0  0  0  0            999 V2000
   21.8355  -23.8707    0.0583 N   0  0
   19.8876  -24.1254   -1.0373 O   0  0
   20.9371  -24.6046   -0.5984 C   0  0
   21.2169  -26.0667   -0.8047 C   0  0
   22.7088  -24.3945    0.3866 H   0  0
   22.1782  -26.3199   -0.3577 H   0  0
   21.2447  -26.2847   -1.8724 H   0  0
   20.4311  -26.6576   -0.3340 H   0  0
   15.2522  -20.1921   -0.2222 C   0  0  2  0  0  0
   15.4122  -21.6662   -0.5198 C   0  0  1  0  0  0
   16.6587  -22.2129    0.1840 C   0  0  2  0  0  0
   17.9681  -21.4295   -0.3647 C   0  0  1  0  0  0
   17.7634  -19.9705   -0.0910 O   0  0
   16.5234  -19.4465   -0.7663 C   0  0  2  0  0  0
   16.2621  -17.9317   -0.5257 C   0  0
   15.0217  -20.0525    1.2210 O   0  0
   14.2476  -22.3893   -0.0055 O   0  0
   19.2484  -22.0005    0.2711 O   0  0
   16.6231  -23.6337   -0.1240 O   0  0
   20.6203  -21.4824   -0.1852 C   0  0  2  0  0  0
   21.7899  -22.4380    0.3935 C   0  0  2  0  0  0
   23.2074  -21.8857    0.1559 C   0  0
   23.4839  -20.5507   -0.0284 O   0  0
   22.4066  -19.6793   -0.3014 C   0  0  1  0  0  0
   20.9898  -20.0666    0.3975 C   0  0  1  0  0  0
   20.0290  -19.0277    0.0091 O   0  0
   17.1723  -16.9947   -1.0436 O   0  0
   22.9119  -18.2682    0.0837 C   0  0
   23.9895  -17.7156   -0.6070 O   0  0
   16.7556  -15.6851   -0.6134 C   0  0
   17.4245  -14.6973   -0.9368 O   0  0
   15.5665  -15.4964    0.3077 C   0  0
   14.1532  -18.9665    1.5654 C   0  0
   13.8400  -18.6763    2.9991 C   0  0
   13.6121  -18.2878    0.6811 O   0  0
   12.9996  -22.0615   -0.6090 C   0  0
   11.7494  -22.7170   -0.0991 C   0  0
   12.9151  -21.2551   -1.5427 O   0  0
   17.4867  -24.4437    0.5966 C   0  0
   17.4583  -25.9276    0.3488 C   0  0
   18.2244  -23.9785    1.4693 O   0  0
   20.0707  -17.9268    0.9359 C   0  0
   19.5840  -16.5975    0.5591 C   0  0
   20.7035  -18.0272    1.9903 O   0  0
   24.2448  -22.6370    0.2260 N   0  0
   25.4180  -21.9878    0.0573 O   0  0
   23.9172  -16.3559   -0.2367 C   0  0
   24.8620  -15.3467   -0.8040 C   0  0
   23.0275  -15.9835    0.5441 O   0  0
   26.5649  -22.8022    0.1120 C   0  0
   27.8365  -22.1452   -0.0395 N   0  0
   26.4628  -24.0113    0.2859 O   0  0
   29.1104  -22.7969   -0.0194 C   0  0
   29.2381  -24.1084    0.0735 C   0  0
   30.5726  -24.7286    0.0885 C   0  0
   31.6628  -23.9646    0.0090 C   0  0
   31.5309  -22.5138   -0.0938 C   0  0
   30.3196  -21.9517   -0.1090 C   0  0
   14.3756  -19.8215   -0.7535 H   0  0
   15.4975  -21.8194   -1.5956 H   0  0
   16.5670  -22.0674    1.2604 H   0  0
   18.0270  -21.5720   -1.4437 H   0  0
   16.6042  -19.6242   -1.8387 H   0  0
   15.2875  -17.7029   -0.9570 H   0  0
   16.2269  -17.7807    0.5532 H   0  0
   20.6649  -21.4589   -1.2740 H   0  0
   21.6598  -22.4107    1.4753 H   0  0
   22.2493  -19.6850   -1.3800 H   0  0
   21.0935  -20.1105    1.4817 H   0  0
   22.0715  -17.5853   -0.0403 H   0  0
   23.1959  -18.3087    1.1352 H   0  0
   15.4254  -14.4341    0.5068 H   0  0
   15.7465  -16.0206    1.2463 H   0  0
   14.6713  -15.8986   -0.1667 H   0  0
   13.1682  -17.8201    3.0586 H   0  0
   14.7624  -18.4516    3.5347 H   0  0
   13.3610  -19.5454    3.4500 H   0  0
   10.8918  -22.3564   -0.6671 H   0  0
   11.6148  -22.4736    0.9548 H   0  0
   11.8323  -23.7978   -0.2142 H   0  0
   18.1913  -26.4176    0.9897 H   0  0
   17.6988  -26.1268   -0.6955 H   0  0
   16.4643  -26.3149    0.5726 H   0  0
   19.7050  -15.9140    1.3995 H   0  0
   18.5295  -16.6588    0.2903 H   0  0
   20.1550  -16.2291   -0.2932 H   0  0
   24.6363  -14.3640   -0.3900 H   0  0
   24.7546  -15.3170   -1.8883 H   0  0
   25.8851  -15.6220   -0.5480 H   0  0
   27.8288  -21.0842   -0.1782 H   0  0
   28.3490  -24.7356    0.1395 H   0  0
   30.6699  -25.8116    0.1646 H   0  0
   32.6517  -24.4227    0.0207 H   0  0
   32.4219  -21.8893   -0.1582 H   0  0
   30.2226  -20.8689   -0.1875 H   0  0
  3  4  1  0
  2  3  2  0
  1  3  1  0
  1  5  1  0
  4  6  1  0
  4  7  1  0
  4  8  1  0
  9 10  1  0
 10 11  1  0
 11 12  1  0
 12 13  1  0
 13 14  1  0
 14  9  1  0
 14 15  1  0
  9 16  1  0
 10 17  1  0
 12 18  1  0
 11 19  1  0
 20 18  1  0
 20 21  1  0
 21 22  1  0
 22 23  1  0
 23 24  1  0
 24 25  1  0
 25 20  1  0
 25 26  1  0
 15 27  1  0
 24 28  1  0
 28 29  1  0
 27 30  1  0
 30 31  2  0
 30 32  1  0
 16 33  1  0
 33 34  1  0
 33 35  2  0
 17 36  1  0
 36 37  1  0
 36 38  2  0
 19 39  1  0
 39 40  1  0
 39 41  2  0
 26 42  1  0
 42 43  1  0
 42 44  2  0
 22 45  2  0
 45 46  1  0
 29 47  1  0
 47 48  1  0
 47 49  2  0
 46 50  1  0
 50 51  1  0
 50 52  2  0
 51 53  1  0
 53 54  2  0
 54 55  1  0
 55 56  2  0
 56 57  1  0
 57 58  2  0
 58 53  1  0
  9 59  1  0
 10 60  1  0
 11 61  1  0
 12 62  1  0
 14 63  1  0
 15 64  1  0
 15 65  1  0
 20 66  1  0
 21 67  1  0
 24 68  1  0
 25 69  1  0
 28 70  1  0
 28 71  1  0
 32 72  1  0
 32 73  1  0
 32 74  1  0
 34 75  1  0
 34 76  1  0
 34 77  1  0
 37 78  1  0
 37 79  1  0
 37 80  1  0
 40 81  1  0
 40 82  1  0
 40 83  1  0
 43 84  1  0
 43 85  1  0
 43 86  1  0
 48 87  1  0
 48 88  1  0
 48 89  1  0
 51 90  1  0
 54 91  1  0
 55 92  1  0
 56 93  1  0
 57 94  1  0
 58 95  1  0
 21  1  1  0
M  END
> <Name>
17 Hattie et al., 2015

> <Clean Energy>
73.0207748413086

> <Reference>
Hattie et al., 2015

> <Forcefield>
MMFF

> <ForcefieldBase>
MMFF

> <ForcefieldFFML>
<?xml version="1.0" encoding="UTF-8"?>
<!DOCTYPE ffml SYSTEM "Ffml.dtd">
<ffml version="1.0">
<forcefield name="17 Hattie et al., 2015-MMFF" derivedFrom="MMFF" base="MMFF">
<atomTypes>
<atomType
 name="N100"
 element="N"
 mass="14.007"
 annotation=""/>
<atomType
 name="O101"
 element="O"
 mass="16"
 annotation=""/>
<atomType
 name="C102"
 element="C"
 mass="12.011"
 annotation=""/>
<atomType
 name="H103"
 element="H"
 mass="1.008"
 annotation=""/>
</atomTypes>
<parameters>
</parameters>
</forcefield>
</ffml>

$$$$
18 Hattie et al., 2015
  SciTegic07212313593D

 73 74  0  0  0  0            999 V2000
   22.4588  -18.1664   -0.3438 N   0  0
   23.4537  -18.8452   -0.1956 N   0  3
   24.4386  -19.5085   -0.0446 N   0  5
   15.4805  -14.3460    0.2767 C   0  0  1  0  0  0
   15.3495  -15.8803   -0.2248 C   0  0  1  0  0  0
   16.8153  -16.6982    0.2726 C   0  0  2  0  0  0
   18.1320  -15.8181   -0.2453 C   0  0  1  0  0  0
   18.0211  -14.4578    0.3782 O   0  0
   16.8732  -13.6402   -0.0189 C   0  0  2  0  0  0
   16.9037  -12.1468    0.8510 C   0  0
   14.1756  -13.5421    0.6384 O   0  0
   14.0758  -16.5838    0.3034 O   0  0
   19.5173  -16.4445    0.1454 O   0  0
   16.8080  -18.1548   -0.2323 O   0  0
   20.8950  -15.8453   -0.3334 C   0  0  2  0  0  0
   22.2885  -16.7453    0.2185 C   0  0  2  0  0  0
   23.6189  -15.9581   -0.1557 C   0  0  1  0  0  0
   23.5484  -14.7189    0.4061 O   0  0
   22.5026  -13.8928    0.0049 C   0  0  1  0  0  0
   21.0198  -14.3873    0.2628 C   0  0  1  0  0  0
   19.9755  -13.4139   -0.4535 O   0  0
   17.9805  -11.0962    0.6611 O   0  0
   22.9104  -12.7683    1.0639 C   0  0
   23.9119  -11.1695    0.1177 I   0  0
   17.7660   -9.5279    0.3541 C   0  0
   18.7767   -8.8150    0.1752 O   0  0
   16.4777   -8.8277    0.1195 C   0  0
   13.9552  -12.0166    0.1454 C   0  0
   12.6426  -11.3575    0.2815 C   0  0
   14.8041  -11.3154   -0.4314 O   0  0
   12.7483  -15.9136    0.1039 C   0  0
   11.4598  -16.6681    0.2992 C   0  0
   12.6305  -14.7565   -0.2982 O   0  0
   18.0379  -19.0012   -0.0886 C   0  0
   17.9916  -20.4824   -0.3002 C   0  0
   19.1309  -18.5619    0.2414 O   0  0
   20.3037  -11.9668   -0.5861 C   0  0
   19.6962  -11.0587   -1.4411 C   0  0
   21.2784  -11.4481   -0.2039 O   0  0
   24.8031  -16.6227    0.4309 O   0  0
   26.0541  -15.9262    0.1490 C   0  0
   15.7219  -14.6037    1.3079 H   0  0
   15.3120  -15.8806   -1.3142 H   0  0
   16.8340  -16.7206    1.3622 H   0  0
   18.0839  -15.7150   -1.3293 H   0  0
   16.9425  -13.4288   -1.0859 H   0  0
   15.9593  -11.6509    0.6270 H   0  0
   16.9317  -12.4162    1.9068 H   0  0
   20.9071  -15.7926   -1.4221 H   0  0
   22.2342  -16.8173    1.3048 H   0  0
   23.7234  -15.8801   -1.2379 H   0  0
   22.6366  -13.5457   -1.0196 H   0  0
   20.8227  -14.4115    1.3346 H   0  0
   22.0095  -12.3892    1.5464 H   0  0
   23.5681  -13.2069    1.8145 H   0  0
   16.6663   -7.7693   -0.0604 H   0  0
   15.8386   -8.9385    0.9955 H   0  0
   15.9812   -9.2605   -0.7490 H   0  0
   12.7039  -10.3409   -0.1068 H   0  0
   12.3577  -11.3276    1.3332 H   0  0
   11.8948  -11.9163   -0.2813 H   0  0
   10.6168  -16.0045    0.1066 H   0  0
   11.4052  -17.0360    1.3238 H   0  0
   11.4233  -17.5107   -0.3914 H   0  0
   18.9856  -20.9029   -0.1480 H   0  0
   17.6596  -20.6945   -1.3165 H   0  0
   17.2958  -20.9298    0.4097 H   0  0
   20.1506  -10.0765   -1.3113 H   0  0
   18.6321  -10.9992   -1.2123 H   0  0
   19.8278  -11.3858   -2.4725 H   0  0
   26.8824  -16.4660    0.6077 H   0  0
   26.0085  -14.9166    0.5574 H   0  0
   26.2070  -15.8750   -0.9291 H   0  0
  2  3  2  0
  1  2  2  0
  4  5  1  0
  5  6  1  0
  6  7  1  0
  7  8  1  0
  8  9  1  0
  9  4  1  0
  9 10  1  0
  4 11  1  0
  5 12  1  0
  7 13  1  0
  6 14  1  0
 15 13  1  0
 15 16  1  0
 16 17  1  0
 17 18  1  0
 18 19  1  0
 19 20  1  0
 20 15  1  0
 20 21  1  0
 10 22  1  0
 19 23  1  0
 23 24  1  0
 22 25  1  0
 25 26  2  0
 25 27  1  0
 11 28  1  0
 28 29  1  0
 28 30  2  0
 12 31  1  0
 31 32  1  0
 31 33  2  0
 14 34  1  0
 34 35  1  0
 34 36  2  0
 21 37  1  0
 37 38  1  0
 37 39  2  0
 17 40  1  0
 40 41  1  0
  4 42  1  0
  5 43  1  0
  6 44  1  0
  7 45  1  0
  9 46  1  0
 10 47  1  0
 10 48  1  0
 15 49  1  0
 16 50  1  0
 17 51  1  0
 19 52  1  0
 20 53  1  0
 23 54  1  0
 23 55  1  0
 27 56  1  0
 27 57  1  0
 27 58  1  0
 29 59  1  0
 29 60  1  0
 29 61  1  0
 32 62  1  0
 32 63  1  0
 32 64  1  0
 35 65  1  0
 35 66  1  0
 35 67  1  0
 38 68  1  0
 38 69  1  0
 38 70  1  0
 41 71  1  0
 41 72  1  0
 41 73  1  0
 16  1  1  0
M  CHG  2   2   1   3  -1
M  END
> <Name>
18 Hattie et al., 2015

> <Clean Energy>
286.981658935547

> <Reference>
Hattie et al., 2015

> <Forcefield>
MMFF

> <ForcefieldBase>
MMFF

> <ForcefieldFFML>
<?xml version="1.0" encoding="UTF-8"?>
<!DOCTYPE ffml SYSTEM "Ffml.dtd">
<ffml version="1.0">
<forcefield name="18 Hattie et al., 2015-MMFF" derivedFrom="MMFF" base="MMFF">
<atomTypes>
<atomType
 name="N100"
 element="N"
 mass="14.007"
 annotation=""/>
<atomType
 name="C101"
 element="C"
 mass="12.011"
 annotation=""/>
<atomType
 name="O102"
 element="O"
 mass="16"
 annotation=""/>
<atomType
 name="I103"
 element="I"
 mass="126.905"
 annotation=""/>
<atomType
 name="H104"
 element="H"
 mass="1.008"
 annotation=""/>
</atomTypes>
<parameters>
</parameters>
</forcefield>
</ffml>

$$$$
19 Hattie et al., 2015
  SciTegic07212313593D

 71 72  0  0  0  0            999 V2000
   22.3446  -18.2477   -0.2554 N   0  0
   23.3514  -18.9174   -0.1527 N   0  3
   24.3423  -19.5816   -0.0536 N   0  5
   15.3751  -14.4336    0.3107 C   0  0  1  0  0  0
   15.2001  -15.9604   -0.1304 C   0  0  1  0  0  0
   16.6892  -16.7553    0.2836 C   0  0  2  0  0  0
   18.0125  -15.8663   -0.2591 C   0  0  1  0  0  0
   17.9196  -14.4712    0.3652 O   0  0
   16.7332  -13.6115    0.0711 C   0  0  2  0  0  0
   16.7975  -12.1751    0.9516 C   0  0
   14.0345  -13.5467    0.2611 O   0  0
   13.9393  -16.6561    0.4360 O   0  0
   19.4073  -16.5038    0.1481 O   0  0
   16.6796  -18.2227   -0.2170 O   0  0
   20.8054  -15.9373   -0.3423 C   0  0  2  0  0  0
   22.1794  -16.7933    0.2739 C   0  0  2  0  0  0
   23.4988  -16.0446   -0.1487 C   0  0  1  0  0  0
   23.5541  -14.7031    0.1587 O   0  0
   22.4641  -13.9577   -0.1652 C   0  0
   20.9240  -14.4234    0.0927 C   0  0  1  0  0  0
   19.9944  -13.4775   -0.6022 O   0  0
   17.8645  -11.1550    0.6532 O   0  0
   22.8606  -12.7678   -0.6099 C   0  0
   17.6767   -9.6160    0.3111 C   0  0
   18.6929   -8.9178    0.1152 O   0  0
   16.4015   -8.8917    0.1306 C   0  0
   13.8463  -12.0369    0.0224 C   0  0
   12.5016  -11.4169    0.1114 C   0  0
   14.7358  -11.2520   -0.2698 O   0  0
   12.5973  -16.0121    0.1543 C   0  0
   11.3212  -16.7776    0.3194 C   0  0
   12.4649  -14.8840   -0.3110 O   0  0
   17.9239  -19.0668   -0.0887 C   0  0
   17.8869  -20.5509   -0.2991 C   0  0
   19.0177  -18.6228    0.2349 O   0  0
   20.1572  -12.1220   -0.1333 C   0  0
   19.9940  -11.0472   -1.1528 C   0  0
   20.8264  -11.8550    0.8749 O   0  0
   24.6916  -16.6698    0.4686 O   0  0
   25.9480  -16.0143    0.1088 C   0  0
   15.4479  -14.5740    1.3891 H   0  0
   15.1169  -15.9754   -1.2171 H   0  0
   16.7462  -16.7864    1.3716 H   0  0
   17.9630  -15.7769   -1.3443 H   0  0
   16.7740  -13.3488   -0.9860 H   0  0
   15.8382  -11.6770    0.8110 H   0  0
   16.9129  -12.4534    1.9991 H   0  0
   20.8318  -15.9845   -1.4309 H   0  0
   22.1209  -16.8182    1.3621 H   0  0
   23.5995  -16.1393   -1.2299 H   0  0
   20.7281  -14.3636    1.1633 H   0  0
   23.9236  -12.5328   -0.6643 H   0  0
   22.1224  -12.0281   -0.9197 H   0  0
   16.6062   -7.8455   -0.0965 H   0  0
   15.8138   -8.9558    1.0464 H   0  0
   15.8423   -9.3386   -0.6914 H   0  0
   12.5797  -10.3483   -0.0887 H   0  0
   12.0958  -11.5700    1.1114 H   0  0
   11.8399  -11.8762   -0.6230 H   0  0
   10.4768  -16.1359    0.0679 H   0  0
   11.2281  -17.1112    1.3530 H   0  0
   11.3284  -17.6438   -0.3423 H   0  0
   18.8863  -20.9632   -0.1597 H   0  0
   17.5434  -20.7666   -1.3108 H   0  0
   17.2042  -21.0034    0.4202 H   0  0
   20.1390  -10.0746   -0.6825 H   0  0
   18.9919  -11.0986   -1.5785 H   0  0
   20.7317  -11.1812   -1.9440 H   0  0
   26.7779  -16.5254    0.5968 H   0  0
   25.9216  -14.9740    0.4331 H   0  0
   26.0827  -16.0541   -0.9722 H   0  0
  2  3  2  0
  1  2  2  0
  4  5  1  0
  5  6  1  0
  6  7  1  0
  7  8  1  0
  8  9  1  0
  9  4  1  0
  9 10  1  0
  4 11  1  0
  5 12  1  0
  7 13  1  0
  6 14  1  0
 15 13  1  0
 15 16  1  0
 16 17  1  0
 17 18  1  0
 18 19  1  0
 19 20  1  0
 20 15  1  0
 20 21  1  0
 10 22  1  0
 19 23  2  0
 22 24  1  0
 24 25  2  0
 24 26  1  0
 11 27  1  0
 27 28  1  0
 27 29  2  0
 12 30  1  0
 30 31  1  0
 30 32  2  0
 14 33  1  0
 33 34  1  0
 33 35  2  0
 21 36  1  0
 36 37  1  0
 36 38  2  0
 17 39  1  0
 39 40  1  0
  4 41  1  0
  5 42  1  0
  6 43  1  0
  7 44  1  0
  9 45  1  0
 10 46  1  0
 10 47  1  0
 15 48  1  0
 16 49  1  0
 17 50  1  0
 20 51  1  0
 23 52  1  0
 23 53  1  0
 26 54  1  0
 26 55  1  0
 26 56  1  0
 28 57  1  0
 28 58  1  0
 28 59  1  0
 31 60  1  0
 31 61  1  0
 31 62  1  0
 34 63  1  0
 34 64  1  0
 34 65  1  0
 37 66  1  0
 37 67  1  0
 37 68  1  0
 40 69  1  0
 40 70  1  0
 40 71  1  0
 16  1  1  0
M  CHG  2   2   1   3  -1
M  END
> <Name>
19 Hattie et al., 2015

> <Clean Energy>
272.800415039062

> <Reference>
Hattie et al., 2015

> <Forcefield>
MMFF

> <ForcefieldBase>
MMFF

> <ForcefieldFFML>
<?xml version="1.0" encoding="UTF-8"?>
<!DOCTYPE ffml SYSTEM "Ffml.dtd">
<ffml version="1.0">
<forcefield name="19 Hattie et al., 2015-MMFF" derivedFrom="MMFF" base="MMFF">
<atomTypes>
<atomType
 name="N100"
 element="N"
 mass="14.007"
 annotation=""/>
<atomType
 name="C101"
 element="C"
 mass="12.011"
 annotation=""/>
<atomType
 name="O102"
 element="O"
 mass="16"
 annotation=""/>
<atomType
 name="H103"
 element="H"
 mass="1.008"
 annotation=""/>
</atomTypes>
<parameters>
</parameters>
</forcefield>
</ffml>

$$$$
20 Hattie et al., 2015
  SciTegic07212313593D

 76 77  0  0  0  0            999 V2000
   21.3899  -18.1608    0.6207 N   0  0
   20.2712  -18.3344   -1.3386 O   0  0
   20.8020  -18.8638   -0.3560 C   0  0
   20.8285  -20.3637   -0.2565 C   0  0
   21.7716  -18.7331    1.4402 H   0  0
   21.3302  -20.6584    0.6652 H   0  0
   21.3669  -20.7755   -1.1102 H   0  0
   19.8078  -20.7462   -0.2523 H   0  0
   15.2498  -14.3179   -0.1665 C   0  0  2  0  0  0
   15.3991  -15.7803   -0.5448 C   0  0  1  0  0  0
   16.5984  -16.3652    0.2094 C   0  0  2  0  0  0
   17.9304  -15.5842   -0.2703 C   0  0  1  0  0  0
   17.7556  -14.1529    0.0884 O   0  0
   16.5767  -13.5630   -0.6023 C   0  0  2  0  0  0
   16.3859  -12.0761   -0.2090 C   0  0
   14.9522  -14.2534    1.2538 O   0  0
   14.2110  -16.5161   -0.0850 O   0  0
   19.1309  -16.1748    0.3929 O   0  0
   16.5602  -17.7744   -0.1536 O   0  0
   20.5387  -15.8253   -0.0722 C   0  0  2  0  0  0
   21.5794  -16.7060    0.7144 C   0  0  2  0  0  0
   22.9221  -16.4773   -0.0015 C   0  0  1  0  0  0
   23.4112  -15.1657    0.0425 O   0  0
   22.5325  -14.1233   -0.0882 C   0  0
   20.9495  -14.3035    0.1081 C   0  0  1  0  0  0
   20.2252  -13.4064   -0.8032 O   0  0
   17.4496  -11.2286   -0.4643 O   0  0
   23.1444  -12.9378   -0.1278 C   0  0
   17.1647   -9.9340    0.0416 C   0  0
   18.0098   -9.0388   -0.0690 O   0  0
   15.8537   -9.6283    0.7271 C   0  0
   14.0915  -13.1635    1.6082 C   0  0
   13.7148  -12.9258    3.0331 C   0  0
   13.6199  -12.4254    0.7274 O   0  0
   12.9862  -16.1584   -0.7052 C   0  0
   11.7236  -16.8364   -0.2483 C   0  0
   12.9256  -15.3131   -1.5987 O   0  0
   17.3901  -18.6175    0.5732 C   0  0
   17.3123  -20.0948    0.3010 C   0  0
   18.1110  -18.1933    1.4781 O   0  0
   20.3390  -12.0315   -0.4733 C   0  0
   20.0685  -10.9974   -1.5293 C   0  0
   20.8079  -11.6798    0.6175 O   0  0
   23.9503  -17.2888    0.5545 O   0  0
   25.1616  -17.0662   -0.1827 C   0  0
   14.4100  -13.8972   -0.7195 H   0  0
   15.5288  -15.8897   -1.6215 H   0  0
   16.4603  -16.2492    1.2844 H   0  0
   18.0332  -15.6757   -1.3515 H   0  0
   16.7063  -13.6430   -1.6817 H   0  0
   15.5222  -11.6973   -0.7556 H   0  0
   16.1834  -12.0401    0.8614 H   0  0
   20.6168  -16.0737   -1.1306 H   0  0
   21.6402  -16.3919    1.7564 H   0  0
   22.7993  -16.7573   -1.0477 H   0  0
   20.7046  -14.0106    1.1290 H   0  0
   24.2308  -12.8825   -0.0581 H   0  0
   22.5577  -12.0248   -0.2299 H   0  0
   15.8402   -8.5834    1.0370 H   0  0
   15.7433  -10.2679    1.6028 H   0  0
   15.0305   -9.8127    0.0368 H   0  0
   13.0596  -12.0571    3.0962 H   0  0
   14.6142  -12.7454    3.6219 H   0  0
   13.1953  -13.8012    3.4229 H   0  0
   10.8779  -16.4532   -0.8192 H   0  0
   11.5664  -16.6364    0.8116 H   0  0
   11.8105  -17.9115   -0.4058 H   0  0
   18.0179  -20.6208    0.9439 H   0  0
   17.5607  -20.2859   -0.7431 H   0  0
   16.3020  -20.4495    0.5045 H   0  0
   20.2013  -10.0018   -1.1060 H   0  0
   19.0456  -11.1047   -1.8900 H   0  0
   20.7622  -11.1344   -2.3588 H   0  0
   25.9589  -17.6823    0.2329 H   0  0
   25.4418  -16.0150   -0.1133 H   0  0
   25.0053  -17.3319   -1.2282 H   0  0
  3  4  1  0
  2  3  2  0
  1  3  1  0
  1  5  1  0
  4  6  1  0
  4  7  1  0
  4  8  1  0
  9 10  1  0
 10 11  1  0
 11 12  1  0
 12 13  1  0
 13 14  1  0
 14  9  1  0
 14 15  1  0
  9 16  1  0
 10 17  1  0
 12 18  1  0
 11 19  1  0
 20 18  1  0
 20 21  1  0
 21 22  1  0
 22 23  1  0
 23 24  1  0
 24 25  1  0
 25 20  1  0
 25 26  1  0
 15 27  1  0
 24 28  2  0
 27 29  1  0
 29 30  2  0
 29 31  1  0
 16 32  1  0
 32 33  1  0
 32 34  2  0
 17 35  1  0
 35 36  1  0
 35 37  2  0
 19 38  1  0
 38 39  1  0
 38 40  2  0
 26 41  1  0
 41 42  1  0
 41 43  2  0
 22 44  1  0
 44 45  1  0
  9 46  1  0
 10 47  1  0
 11 48  1  0
 12 49  1  0
 14 50  1  0
 15 51  1  0
 15 52  1  0
 20 53  1  0
 21 54  1  0
 22 55  1  0
 25 56  1  0
 28 57  1  0
 28 58  1  0
 31 59  1  0
 31 60  1  0
 31 61  1  0
 33 62  1  0
 33 63  1  0
 33 64  1  0
 36 65  1  0
 36 66  1  0
 36 67  1  0
 39 68  1  0
 39 69  1  0
 39 70  1  0
 42 71  1  0
 42 72  1  0
 42 73  1  0
 45 74  1  0
 45 75  1  0
 45 76  1  0
 21  1  1  0
M  END
> <Name>
20 Hattie et al., 2015

> <Clean Energy>
59.3866844177246

> <Reference>
Hattie et al., 2015

> <Forcefield>
MMFF

> <ForcefieldBase>
MMFF

> <ForcefieldFFML>
<?xml version="1.0" encoding="UTF-8"?>
<!DOCTYPE ffml SYSTEM "Ffml.dtd">
<ffml version="1.0">
<forcefield name="20 Hattie et al., 2015-MMFF" derivedFrom="MMFF" base="MMFF">
<atomTypes>
<atomType
 name="N100"
 element="N"
 mass="14.007"
 annotation=""/>
<atomType
 name="O101"
 element="O"
 mass="16"
 annotation=""/>
<atomType
 name="C102"
 element="C"
 mass="12.011"
 annotation=""/>
<atomType
 name="H103"
 element="H"
 mass="1.008"
 annotation=""/>
</atomTypes>
<parameters>
</parameters>
</forcefield>
</ffml>

$$$$
21 Hattie et al., 2015
  SciTegic07212313593D

 51 54  0  0  0  0            999 V2000
   22.1584  -23.8624   -0.0852 O   0  0
   27.0840  -27.9618   -0.3272 C   0  0
   27.1562  -29.2852   -0.1855 C   0  0
   25.9464  -30.0579    0.1027 C   0  0
   24.7722  -29.4376    0.2257 C   0  0
   24.6935  -27.9800    0.0697 C   0  0
   25.7907  -27.2791   -0.1928 C   0  0
   23.3642  -27.2878    0.2215 C   0  0
   23.4823  -25.8988   -0.1177 O   0  0
   22.2798  -25.2471    0.1823 C   0  0
   21.3633  -25.8844    0.7038 O   0  0
   27.9844  -27.3865   -0.5427 H   0  0
   28.1160  -29.7923   -0.2842 H   0  0
   26.0055  -31.1403    0.2168 H   0  0
   23.8716  -30.0124    0.4419 H   0  0
   25.7312  -26.1969   -0.3085 H   0  0
   23.0285  -27.3778    1.2546 H   0  0
   22.6367  -27.7584   -0.4399 H   0  0
   18.7253  -21.4944   -0.5203 C   0  0  2  0  0  0
   18.4350  -22.9630   -0.1974 C   0  0  2  0  0  0
   19.6499  -23.7633   -0.6501 C   0  0  1  0  0  0
   20.8656  -23.2570    0.2535 C   0  0  2  0  0  0
   21.0028  -21.7123    0.1105 C   0  0
   19.6923  -21.1049    0.4595 N   0  0
   19.6377  -19.6142    0.4844 C   0  0
   18.2866  -19.2800   -0.2617 C   0  0
   17.5386  -20.6320   -0.3276 C   0  0  2  0  0  0
   16.9039  -21.1855    0.7805 O   0  0
   17.1901  -23.2102   -0.7458 O   0  0
   16.2363  -22.4818    0.2259 C   0  0
   15.8409  -23.3781    1.4435 C   0  0
   14.8933  -22.2132   -0.5239 C   0  0
   19.4059  -25.1536   -0.4490 O   0  0
   19.1259  -21.3879   -1.5284 H   0  0
   18.3517  -23.0601    0.8851 H   0  0
   19.8574  -23.5672   -1.7020 H   0  0
   20.6399  -23.4876    1.2947 H   0  0
   21.7737  -21.3445    0.7877 H   0  0
   21.2680  -21.4573   -0.9155 H   0  0
   19.6187  -19.2426    1.5089 H   0  0
   20.4897  -19.1848   -0.0426 H   0  0
   17.7079  -18.5461    0.2992 H   0  0
   18.4836  -18.8991   -1.2638 H   0  0
   16.8890  -20.6702   -1.2021 H   0  0
   15.3708  -24.2935    1.0840 H   0  0
   15.1416  -22.8375    2.0813 H   0  0
   16.7341  -23.6295    2.0155 H   0  0
   14.4825  -23.1565   -0.8837 H   0  0
   15.0752  -21.5505   -1.3700 H   0  0
   14.1833  -21.7448    0.1578 H   0  0
   19.2282  -25.3345    0.5700 H   0  0
 10 11  2  0
  9 10  1  0
  8  9  1  0
  6  7  2  0
  6  8  1  0
  5  6  1  0
  4  5  2  0
  3  4  1  0
  2  3  2  0
  2  7  1  0
  1 10  1  0
  2 12  1  0
  3 13  1  0
  4 14  1  0
  5 15  1  0
  7 16  1  0
  8 17  1  0
  8 18  1  0
 19 20  1  0
 20 21  1  0
 21 22  1  0
 22 23  1  0
 23 24  1  0
 24 19  1  0
 24 25  1  0
 25 26  1  0
 26 27  1  0
 27 19  1  0
 27 28  1  0
 20 29  1  0
 28 30  1  0
 29 30  1  0
 30 31  1  0
 30 32  1  0
 21 33  1  0
 19 34  1  0
 20 35  1  0
 21 36  1  0
 22 37  1  0
 23 38  1  0
 23 39  1  0
 25 40  1  0
 25 41  1  0
 26 42  1  0
 26 43  1  0
 27 44  1  0
 31 45  1  0
 31 46  1  0
 31 47  1  0
 32 48  1  0
 32 49  1  0
 32 50  1  0
 33 51  1  0
 22  1  1  0
M  END
> <Name>
21 Hattie et al., 2015

> <Clean Energy>
65.2250442504883

> <Reference>
Hattie et al., 2015

> <Forcefield>
MMFF

> <ForcefieldBase>
MMFF

> <ForcefieldFFML>
<?xml version="1.0" encoding="UTF-8"?>
<!DOCTYPE ffml SYSTEM "Ffml.dtd">
<ffml version="1.0">
<forcefield name="21 Hattie et al., 2015-MMFF" derivedFrom="MMFF" base="MMFF">
<atomTypes>
<atomType
 name="O100"
 element="O"
 mass="16"
 annotation=""/>
<atomType
 name="C101"
 element="C"
 mass="12.011"
 annotation=""/>
<atomType
 name="H102"
 element="H"
 mass="1.008"
 annotation=""/>
<atomType
 name="N103"
 element="N"
 mass="14.007"
 annotation=""/>
</atomTypes>
<parameters>
</parameters>
</forcefield>
</ffml>

$$$$
22 Hattie et al., 2015
  SciTegic07212313593D

 92 96  0  0  0  0            999 V2000
   27.4590  -25.2678   -0.1939 O   0  0
   28.4847  -31.5567   -0.3691 C   0  0
   27.6795  -32.6057   -0.2045 C   0  0
   26.2698  -32.3990    0.1354 C   0  0
   25.7942  -31.1631    0.2828 C   0  0
   26.6776  -30.0057    0.1014 C   0  0
   27.9601  -30.1931   -0.2098 C   0  0
   26.1293  -28.6106    0.2837 C   0  0
   27.0483  -27.6357   -0.2022 O   0  0
   26.6521  -26.3440    0.1880 C   0  0
   25.6565  -26.1874    0.9021 O   0  0
   29.5337  -31.7102   -0.6223 H   0  0
   28.0695  -33.6167   -0.3227 H   0  0
   25.6098  -33.2562    0.2677 H   0  0
   24.7456  -31.0114    0.5390 H   0  0
   28.6193  -29.3358   -0.3459 H   0  0
   25.9491  -28.4338    1.3441 H   0  0
   25.1915  -28.5213   -0.2645 H   0  0
   22.7720  -26.2595   -0.1444 O   0  0
   21.1150  -27.1727    1.2022 O   0  0
   22.0738  -27.3449    0.4518 C   0  0
   22.5088  -28.7488    0.1440 C   0  0
   23.3648  -28.7249   -0.5303 H   0  0
   21.6886  -29.2882   -0.3297 H   0  0
   22.7892  -29.2537    1.0685 H   0  0
   20.1628  -22.9903    0.9299 O   0  0
   18.6925  -21.3163    0.3449 O   0  0
   19.3199  -21.9049    1.2364 C   0  0
   19.0974  -21.5184    2.6665 C   0  0
   19.7255  -22.1329    3.3114 H   0  0
   18.0501  -21.6726    2.9264 H   0  0
   19.3546  -20.4681    2.8038 H   0  0
   19.8479  -25.6263    0.0087 O   0  0
   18.3229  -25.0173   -1.6429 O   0  0
   18.5661  -25.6523   -0.6165 C   0  0
   17.4832  -26.4956   -0.0059 C   0  0
   17.8650  -26.9854    0.8899 H   0  0
   17.1620  -27.2507   -0.7233 H   0  0
   16.6358  -25.8634    0.2595 H   0  0
   21.7134  -20.3370   -2.4818 O   0  0
   22.8758  -19.8670   -0.6754 O   0  0
   22.7887  -19.7993   -1.8939 C   0  0
   23.8366  -19.1000   -2.7079 C   0  0
   23.5723  -19.1529   -3.7640 H   0  0
   24.8014  -19.5823   -2.5508 H   0  0
   23.8987  -18.0558   -2.4014 H   0  0
   27.0211  -21.1101   -0.1720 C   0  0  2  0  0  0
   25.7744  -21.8323    0.3973 C   0  0  2  0  0  0
   25.7369  -23.2709   -0.2771 C   0  0  1  0  0  0
   27.1071  -23.9399    0.2997 C   0  0  2  0  0  0
   28.3363  -23.0633   -0.0529 C   0  0
   28.1367  -21.7210    0.4716 N   0  0
   29.2801  -20.7820    0.2764 C   0  0
   28.5805  -19.4472   -0.1558 C   0  0
   27.0993  -19.6788    0.1992 C   0  0  2  0  0  0
   26.6740  -19.6654    1.5184 O   0  0
   24.7791  -20.8676    0.2730 O   0  0
   25.1535  -19.8158    1.4059 C   0  0
   24.5934  -20.2325    2.8005 C   0  0
   24.4866  -18.4201    1.1399 C   0  0
   24.5693  -24.1048    0.1142 O   0  0
   23.2498  -23.9008   -0.5980 C   0  0  2  0  0  0
   22.7368  -22.5287   -0.5817 O   0  0
   21.3960  -22.4533   -1.2787 C   0  0  1  0  0  0
   20.3431  -23.3070   -0.4834 C   0  0  1  0  0  0
   20.8327  -24.7466   -0.6266 C   0  0  1  0  0  0
   22.2305  -24.9001    0.0766 C   0  0  1  0  0  0
   20.8943  -20.9947   -1.5053 C   0  0
   27.0813  -21.2342   -1.2532 H   0  0
   25.9472  -21.9809    1.4632 H   0  0
   25.7891  -23.1803   -1.3621 H   0  0
   27.0280  -23.9919    1.3856 H   0  0
   29.2323  -23.4977    0.3906 H   0  0
   28.4519  -23.0174   -1.1358 H   0  0
   29.8378  -20.6482    1.2033 H   0  0
   29.9514  -21.1412   -0.5035 H   0  0
   28.9848  -18.5998    0.3980 H   0  0
   28.7012  -19.2739   -1.2251 H   0  0
   26.4460  -19.0741   -0.4297 H   0  0
   23.5109  -20.3444    2.7392 H   0  0
   24.8378  -19.4650    3.5349 H   0  0
   25.0394  -21.1799    3.1035 H   0  0
   23.4063  -18.5420    1.0621 H   0  0
   24.8727  -18.0038    0.2094 H   0  0
   24.7171  -17.7439    1.9632 H   0  0
   23.3779  -24.2007   -1.6380 H   0  0
   21.5131  -22.9132   -2.2600 H   0  0
   19.3784  -23.2188   -0.9830 H   0  0
   20.9236  -24.9999   -1.6829 H   0  0
   22.1445  -24.6935    1.1434 H   0  0
   19.8631  -21.0191   -1.8575 H   0  0
   20.9446  -20.4463   -0.5646 H   0  0
 10 11  2  0
  9 10  1  0
  8  9  1  0
  6  7  2  0
  6  8  1  0
  5  6  1  0
  4  5  2  0
  3  4  1  0
  2  3  2  0
  2  7  1  0
  1 10  1  0
  2 12  1  0
  3 13  1  0
  4 14  1  0
  5 15  1  0
  7 16  1  0
  8 17  1  0
  8 18  1  0
 21 22  1  0
 20 21  2  0
 19 21  1  0
 22 23  1  0
 22 24  1  0
 22 25  1  0
 28 29  1  0
 27 28  2  0
 26 28  1  0
 29 30  1  0
 29 31  1  0
 29 32  1  0
 35 36  1  0
 34 35  2  0
 33 35  1  0
 36 37  1  0
 36 38  1  0
 36 39  1  0
 42 43  1  0
 41 42  2  0
 40 42  1  0
 43 44  1  0
 43 45  1  0
 43 46  1  0
 47 48  1  0
 48 49  1  0
 49 50  1  0
 50 51  1  0
 51 52  1  0
 52 47  1  0
 52 53  1  0
 53 54  1  0
 54 55  1  0
 55 47  1  0
 55 56  1  0
 48 57  1  0
 56 58  1  0
 57 58  1  0
 58 59  1  0
 58 60  1  0
 49 61  1  0
 62 61  1  0
 62 63  1  0
 63 64  1  0
 64 65  1  0
 65 66  1  0
 66 67  1  0
 67 62  1  0
 64 68  1  0
 47 69  1  0
 48 70  1  0
 49 71  1  0
 50 72  1  0
 51 73  1  0
 51 74  1  0
 53 75  1  0
 53 76  1  0
 54 77  1  0
 54 78  1  0
 55 79  1  0
 59 80  1  0
 59 81  1  0
 59 82  1  0
 60 83  1  0
 60 84  1  0
 60 85  1  0
 62 86  1  0
 64 87  1  0
 65 88  1  0
 66 89  1  0
 67 90  1  0
 68 91  1  0
 68 92  1  0
 50  1  1  0
 67 19  1  0
 65 26  1  0
 66 33  1  0
 68 40  1  0
M  END
> <Name>
22 Hattie et al., 2015

> <Clean Energy>
87.168571472168

> <Reference>
Hattie et al., 2015

> <Forcefield>
MMFF

> <ForcefieldBase>
MMFF

> <ForcefieldFFML>
<?xml version="1.0" encoding="UTF-8"?>
<!DOCTYPE ffml SYSTEM "Ffml.dtd">
<ffml version="1.0">
<forcefield name="22 Hattie et al., 2015-MMFF" derivedFrom="MMFF" base="MMFF">
<atomTypes>
<atomType
 name="O100"
 element="O"
 mass="16"
 annotation=""/>
<atomType
 name="C101"
 element="C"
 mass="12.011"
 annotation=""/>
<atomType
 name="H102"
 element="H"
 mass="1.008"
 annotation=""/>
<atomType
 name="N103"
 element="N"
 mass="14.007"
 annotation=""/>
</atomTypes>
<parameters>
</parameters>
</forcefield>
</ffml>

$$$$
23 Hattie et al., 2015
  SciTegic07212313593D

 95 98  0  0  0  0            999 V2000
   26.1759  -18.1475   -0.0571 O   0  0
   27.7094  -16.4382    0.0638 O   0  0
   26.5287  -16.8005    0.0939 C   0  0
   25.4379  -15.7738    0.2398 C   0  0
   24.4683  -16.2716    0.2471 H   0  0
   25.4810  -15.0757   -0.5963 H   0  0
   25.5732  -15.2294    1.1744 H   0  0
   24.5704  -20.6784    0.6681 O   0  0
   25.7087  -19.6960    2.4696 O   0  0
   24.6642  -19.7717    1.8174 C   0  0
   23.4895  -18.9699    2.3107 C   0  0
   22.6383  -19.1263    1.6481 H   0  0
   23.7505  -17.9117    2.3224 H   0  0
   23.2280  -19.2904    3.3192 H   0  0
   27.4590  -24.7415   -0.6255 O   0  0
   28.5584  -31.1114   -0.4718 C   0  0
   27.7498  -32.1415   -0.2246 C   0  0
   26.3783  -31.9007    0.2295 C   0  0
   25.9418  -30.6529    0.3999 C   0  0
   26.8294  -29.5133    0.1264 C   0  0
   28.0764  -29.7334   -0.2903 C   0  0
   26.3250  -28.0983    0.3359 C   0  0
   27.1073  -27.1441   -0.3992 O   0  0
   26.8045  -25.8265    0.0159 C   0  0
   26.0176  -25.6462    0.9516 O   0  0
   29.5793  -31.2903   -0.8092 H   0  0
   28.1086  -33.1617   -0.3602 H   0  0
   25.7144  -32.7421    0.4282 H   0  0
   24.9224  -30.4767    0.7435 H   0  0
   28.7386  -28.8926   -0.4965 H   0  0
   26.3791  -27.8571    1.3975 H   0  0
   25.2892  -28.0390    0.0016 H   0  0
   22.8811  -25.9031    0.0630 O   0  0
   21.1669  -26.8746    1.2886 O   0  0
   22.1752  -27.0149    0.5825 C   0  0
   22.6423  -28.4018    0.2632 C   0  0
   23.5336  -28.3506   -0.3620 H   0  0
   21.8560  -28.9370   -0.2691 H   0  0
   22.8777  -28.9284    1.1881 H   0  0
   20.1801  -22.6705    1.0568 O   0  0
   18.6998  -21.0233    0.4136 O   0  0
   19.3027  -21.5959    1.3207 C   0  0
   19.0267  -21.2111    2.7463 C   0  0
   19.6436  -21.8146    3.4121 H   0  0
   17.9742  -21.3826    2.9723 H   0  0
   19.2617  -20.1565    2.8906 H   0  0
   19.9297  -25.3048    0.0919 O   0  0
   18.4700  -24.6967   -1.6198 O   0  0
   18.6726  -25.3432   -0.5740 C   0  0
   17.5677  -26.1884   -0.0243 C   0  0
   17.9065  -26.6833    0.8858 H   0  0
   17.2831  -26.9395   -0.7612 H   0  0
   16.7073  -25.5592    0.2036 H   0  0
   21.8320  -19.9631   -2.2438 O   0  0
   22.7686  -19.2874   -0.3598 O   0  0
   22.7825  -19.2813   -1.5813 C   0  0
   23.8029  -18.4888   -2.3260 C   0  0
   23.6489  -18.6130   -3.3978 H   0  0
   24.8004  -18.8385   -2.0598 H   0  0
   23.7064  -17.4348   -2.0653 H   0  0
   26.8434  -20.4918   -0.5123 C   0  0  2  0  0  0
   25.8501  -21.3408    0.4688 C   0  0  2  0  0  0
   25.7210  -22.7865   -0.2522 C   0  0  1  0  0  0
   27.2174  -23.3868   -0.0980 C   0  0  2  0  0  0
   28.1961  -22.4833   -0.9186 C   0  0
   28.1757  -21.0614   -0.5697 N   0  0
   28.9077  -20.6241    0.6686 C   0  0
   28.1669  -19.2889    1.0490 C   0  0
   27.2908  -19.0629   -0.1974 C   0  0  2  0  0  0
   24.7049  -23.6536    0.3686 O   0  0
   23.3427  -23.5311   -0.3400 C   0  0  2  0  0  0
   22.7998  -22.1673   -0.3649 O   0  0
   21.4931  -22.1048   -1.0933 C   0  0  1  0  0  0
   20.4196  -22.9790   -0.3777 C   0  0  1  0  0  0
   20.9319  -24.4144   -0.4606 C   0  0  1  0  0  0
   22.3203  -24.5538    0.2665 C   0  0  1  0  0  0
   20.9819  -20.6578   -1.3294 C   0  0
   26.4229  -20.5044   -1.5178 H   0  0
   26.3352  -21.4705    1.4362 H   0  0
   25.4889  -22.6492   -1.3083 H   0  0
   27.5048  -23.3585    0.9531 H   0  0
   29.2089  -22.8542   -0.7609 H   0  0
   27.9351  -22.5751   -1.9729 H   0  0
   28.8159  -21.3652    1.4626 H   0  0
   29.9621  -20.4435    0.4596 H   0  0
   27.5601  -19.4113    1.9461 H   0  0
   28.8712  -18.4699    1.1951 H   0  0
   27.9274  -18.7120   -1.0096 H   0  0
   23.5015  -23.8245   -1.3777 H   0  0
   21.6572  -22.5467   -2.0761 H   0  0
   19.4777  -22.9040   -0.9213 H   0  0
   21.0704  -24.6670   -1.5119 H   0  0
   22.1979  -24.3633    1.3327 H   0  0
   19.9728  -20.6977   -1.7394 H   0  0
   20.9676  -20.1243   -0.3790 H   0  0
  3  4  1  0
  2  3  2  0
  1  3  1  0
  4  5  1  0
  4  6  1  0
  4  7  1  0
 10 11  1  0
  9 10  2  0
  8 10  1  0
 11 12  1  0
 11 13  1  0
 11 14  1  0
 24 25  2  0
 23 24  1  0
 22 23  1  0
 20 21  2  0
 20 22  1  0
 19 20  1  0
 18 19  2  0
 17 18  1  0
 16 17  2  0
 16 21  1  0
 15 24  1  0
 16 26  1  0
 17 27  1  0
 18 28  1  0
 19 29  1  0
 21 30  1  0
 22 31  1  0
 22 32  1  0
 35 36  1  0
 34 35  2  0
 33 35  1  0
 36 37  1  0
 36 38  1  0
 36 39  1  0
 42 43  1  0
 41 42  2  0
 40 42  1  0
 43 44  1  0
 43 45  1  0
 43 46  1  0
 49 50  1  0
 48 49  2  0
 47 49  1  0
 50 51  1  0
 50 52  1  0
 50 53  1  0
 56 57  1  0
 55 56  2  0
 54 56  1  0
 57 58  1  0
 57 59  1  0
 57 60  1  0
 61 62  1  0
 62 63  1  0
 63 64  1  0
 64 65  1  0
 65 66  1  0
 66 61  1  0
 66 67  1  0
 67 68  1  0
 68 69  1  0
 69 61  1  0
 63 70  1  0
 71 70  1  0
 71 72  1  0
 72 73  1  0
 73 74  1  0
 74 75  1  0
 75 76  1  0
 76 71  1  0
 73 77  1  0
 61 78  1  0
 62 79  1  0
 63 80  1  0
 64 81  1  0
 65 82  1  0
 65 83  1  0
 67 84  1  0
 67 85  1  0
 68 86  1  0
 68 87  1  0
 69 88  1  0
 71 89  1  0
 73 90  1  0
 74 91  1  0
 75 92  1  0
 76 93  1  0
 77 94  1  0
 77 95  1  0
 69  1  1  0
 62  8  1  0
 64 15  1  0
 76 33  1  0
 74 40  1  0
 75 47  1  0
 77 54  1  0
M  END
> <Name>
23 Hattie et al., 2015

> <Clean Energy>
66.7508010864258

> <Reference>
Hattie et al., 2015

> <Forcefield>
MMFF

> <ForcefieldBase>
MMFF

> <ForcefieldFFML>
<?xml version="1.0" encoding="UTF-8"?>
<!DOCTYPE ffml SYSTEM "Ffml.dtd">
<ffml version="1.0">
<forcefield name="23 Hattie et al., 2015-MMFF" derivedFrom="MMFF" base="MMFF">
<atomTypes>
<atomType
 name="O100"
 element="O"
 mass="16"
 annotation=""/>
<atomType
 name="C101"
 element="C"
 mass="12.011"
 annotation=""/>
<atomType
 name="H102"
 element="H"
 mass="1.008"
 annotation=""/>
<atomType
 name="N103"
 element="N"
 mass="14.007"
 annotation=""/>
</atomTypes>
<parameters>
</parameters>
</forcefield>
</ffml>

$$$$
24 Hattie et al., 2015
  SciTegic07212313593D

 79 81  0  0  0  0            999 V2000
   25.5212  -16.5158   -0.0861 O   0  0
   27.0420  -14.8048    0.0710 O   0  0
   25.8628  -15.1723    0.0720 C   0  0
   24.7626  -14.1536    0.1919 C   0  0
   23.7964  -14.6578    0.1749 H   0  0
   24.8216  -13.4544   -0.6423 H   0  0
   24.8713  -13.6093    1.1300 H   0  0
   23.9234  -19.0258    0.7053 O   0  0
   25.0434  -17.9590    2.4633 O   0  0
   23.9984  -18.0866    1.8214 C   0  0
   22.7975  -17.3115    2.2950 C   0  0
   21.9506  -17.5169    1.6405 H   0  0
   23.0216  -16.2449    2.2744 H   0  0
   22.5500  -17.6107    3.3135 H   0  0
   22.3922  -24.3737    0.1713 O   0  0
   20.6621  -25.4454    1.3017 O   0  0
   21.7098  -25.5245    0.6552 C   0  0
   22.2746  -26.8847    0.3524 C   0  0
   23.1948  -26.7770   -0.2216 H   0  0
   21.5509  -27.4584   -0.2266 H   0  0
   22.4879  -27.4061    1.2856 H   0  0
   19.5476  -21.2339    1.0639 O   0  0
   18.0463  -19.6284    0.3738 O   0  0
   18.6384  -20.1854    1.3045 C   0  0
   18.3095  -19.8045    2.7166 C   0  0
   18.9210  -20.3899    3.4032 H   0  0
   17.2553  -20.0025    2.9108 H   0  0
   18.5126  -18.7438    2.8641 H   0  0
   19.4117  -23.8823    0.1219 O   0  0
   17.9780  -23.3275   -1.6362 O   0  0
   18.1733  -23.9590   -0.5906 C   0  0
   17.0794  -24.8394   -0.0620 C   0  0
   17.4116  -25.3197    0.8583 H   0  0
   16.8365  -25.6020   -0.8020 H   0  0
   16.1943  -24.2370    0.1423 H   0  0
   21.1898  -18.5177   -2.2489 O   0  0
   22.1184  -17.8024   -0.3770 O   0  0
   22.1329  -17.8161   -1.5977 C   0  0
   23.1461  -17.0250   -2.3565 C   0  0
   22.9934  -17.1687   -3.4261 H   0  0
   24.1472  -17.3599   -2.0847 H   0  0
   23.0387  -15.9679   -2.1135 H   0  0
   26.1880  -18.8385   -0.5213 C   0  0  2  0  0  0
   25.2105  -19.6658    0.4939 C   0  0  2  0  0  0
   25.0732  -21.1030   -0.1958 C   0  0  1  0  0  0
   26.5311  -21.6952   -0.1086 C   0  0  2  0  0  0
   27.5077  -20.8349   -0.9603 C   0  0
   27.5184  -19.4177   -0.5912 N   0  0
   28.2371  -19.0091    0.6629 C   0  0
   27.5125  -17.6589    1.0372 C   0  0
   26.6386  -17.4249   -0.2146 C   0  0  2  0  0  0
   24.1199  -22.0092    0.4705 O   0  0
   26.5571  -23.0219   -0.6306 O   0  0
   22.7678  -21.9777   -0.2454 C   0  0  2  0  0  0
   22.1791  -20.6413   -0.2943 O   0  0
   20.8953  -20.6410   -1.0603 C   0  0  1  0  0  0
   19.8373  -21.5439   -0.3425 C   0  0  1  0  0  0
   20.4032  -22.9591   -0.4281 C   0  0  1  0  0  0
   21.7678  -23.0444    0.3629 C   0  0  1  0  0  0
   20.3438  -19.2153   -1.3278 C   0  0
   25.7484  -18.8551   -1.5186 H   0  0
   25.7120  -19.7800    1.4549 H   0  0
   24.7907  -20.9807   -1.2414 H   0  0
   26.8614  -21.7038    0.9301 H   0  0
   28.5153  -21.2311   -0.8335 H   0  0
   27.2141  -20.9156   -2.0069 H   0  0
   28.1148  -19.7542    1.4490 H   0  0
   29.2988  -18.8488    0.4754 H   0  0
   26.9028  -17.7691    1.9340 H   0  0
   28.2279  -16.8492    1.1808 H   0  0
   27.2780  -17.0788   -1.0266 H   0  0
   25.9061  -23.6300   -0.0747 H   0  0
   22.9532  -22.2757   -1.2773 H   0  0
   21.0995  -21.0941   -2.0304 H   0  0
   18.9057  -21.5060   -0.9071 H   0  0
   20.5813  -23.2090   -1.4740 H   0  0
   21.6048  -22.8508    1.4231 H   0  0
   19.3410  -19.2912   -1.7481 H   0  0
   20.3038  -18.6637   -0.3885 H   0  0
  3  4  1  0
  2  3  2  0
  1  3  1  0
  4  5  1  0
  4  6  1  0
  4  7  1  0
 10 11  1  0
  9 10  2  0
  8 10  1  0
 11 12  1  0
 11 13  1  0
 11 14  1  0
 17 18  1  0
 16 17  2  0
 15 17  1  0
 18 19  1  0
 18 20  1  0
 18 21  1  0
 24 25  1  0
 23 24  2  0
 22 24  1  0
 25 26  1  0
 25 27  1  0
 25 28  1  0
 31 32  1  0
 30 31  2  0
 29 31  1  0
 32 33  1  0
 32 34  1  0
 32 35  1  0
 38 39  1  0
 37 38  2  0
 36 38  1  0
 39 40  1  0
 39 41  1  0
 39 42  1  0
 43 44  1  0
 44 45  1  0
 45 46  1  0
 46 47  1  0
 47 48  1  0
 48 43  1  0
 48 49  1  0
 49 50  1  0
 50 51  1  0
 51 43  1  0
 45 52  1  0
 46 53  1  0
 54 52  1  0
 54 55  1  0
 55 56  1  0
 56 57  1  0
 57 58  1  0
 58 59  1  0
 59 54  1  0
 56 60  1  0
 43 61  1  0
 44 62  1  0
 45 63  1  0
 46 64  1  0
 47 65  1  0
 47 66  1  0
 49 67  1  0
 49 68  1  0
 50 69  1  0
 50 70  1  0
 51 71  1  0
 53 72  1  0
 54 73  1  0
 56 74  1  0
 57 75  1  0
 58 76  1  0
 59 77  1  0
 60 78  1  0
 60 79  1  0
 51  1  1  0
 44  8  1  0
 59 15  1  0
 57 22  1  0
 58 29  1  0
 60 36  1  0
M  END
> <Name>
24 Hattie et al., 2015

> <Clean Energy>
61.8862648010254

> <Reference>
Hattie et al., 2015

> <Forcefield>
MMFF

> <ForcefieldBase>
MMFF

> <ForcefieldFFML>
<?xml version="1.0" encoding="UTF-8"?>
<!DOCTYPE ffml SYSTEM "Ffml.dtd">
<ffml version="1.0">
<forcefield name="24 Hattie et al., 2015-MMFF" derivedFrom="MMFF" base="MMFF">
<atomTypes>
<atomType
 name="O100"
 element="O"
 mass="16"
 annotation=""/>
<atomType
 name="C101"
 element="C"
 mass="12.011"
 annotation=""/>
<atomType
 name="H102"
 element="H"
 mass="1.008"
 annotation=""/>
<atomType
 name="N103"
 element="N"
 mass="14.007"
 annotation=""/>
</atomTypes>
<parameters>
</parameters>
</forcefield>
</ffml>

$$$$
25 Hattie et al., 2015
  SciTegic07212313593D

 80 82  0  0  0  0            999 V2000
   25.8411  -16.3800    0.7269 O   0  0
   26.6816  -14.4363   -0.4061 O   0  0
   25.7789  -14.8714    0.2932 C   0  0
   24.5381  -13.8708    0.4899 C   0  0
   23.7874  -14.3423    1.1239 H   0  0
   24.0997  -13.6396   -0.4809 H   0  0
   24.8840  -12.9503    0.9604 H   0  0
   24.6516  -19.9495   -1.0137 O   0  0
   24.6048  -18.0588   -0.2032 O   0  0
   24.2115  -18.7247   -1.1102 C   0  0
   22.9208  -18.2520   -1.9597 C   0  0
   22.7127  -18.9821   -2.7418 H   0  0
   23.1194  -17.2810   -2.4133 H   0  0
   22.0583  -18.1737   -1.2977 H   0  0
   28.0838  -23.4175   -0.3295 N   0  0
   29.2113  -23.8377   -0.1996 N   0  3
   30.3345  -24.2197   -0.0481 N   0  5
   22.4281  -25.0088   -0.2821 O   0  0
   20.3327  -26.0113    0.2379 O   0  0
   21.4976  -26.1424   -0.1018 C   0  0
   21.9456  -27.5524   -0.2975 C   0  0
   22.9933  -27.5629   -0.5978 H   0  0
   21.3411  -28.0218   -1.0736 H   0  0
   21.8301  -28.1037    0.6357 H   0  0
   18.7729  -21.1219    0.4430 O   0  0
   18.9566  -18.8732   -0.3867 O   0  0
   18.2306  -19.7656    0.0789 C   0  0
   16.7982  -19.4391    0.2692 C   0  0
   16.2794  -20.3045    0.6815 H   0  0
   16.3549  -19.1736   -0.6906 H   0  0
   16.7048  -18.5986    0.9570 H   0  0
   19.3882  -24.0612    0.2718 O   0  0
   17.5576  -22.8039   -0.3571 O   0  0
   18.0060  -23.8494    0.0869 C   0  0
   17.0329  -24.9474    0.3215 C   0  0
   17.5556  -25.8189    0.7155 H   0  0
   16.5470  -25.2100   -0.6183 H   0  0
   16.2810  -24.6200    1.0396 H   0  0
   21.3337  -18.4613    1.1534 O   0  0
   23.3432  -19.1545    1.2942 O   0  0
   22.5124  -18.2129    1.2383 C   0  0
   22.8204  -16.6774    1.0304 C   0  0
   21.8862  -16.1160    1.0279 H   0  0
   23.3320  -16.5346    0.0785 H   0  0
   23.4560  -16.3208    1.8410 H   0  0
   27.0340  -19.0967   -0.2150 C   0  0  2  0  0  0
   25.7428  -20.1654    0.0209 C   0  0  2  0  0  0
   26.0171  -21.6974   -0.3315 C   0  0  1  0  0  0
   27.5485  -22.0813    0.2308 C   0  0  2  0  0  0
   28.5565  -20.8916   -0.2306 C   0  0
   28.1986  -19.4777    0.3563 N   0  0
   29.0562  -18.3454   -0.2455 C   0  0
   28.3909  -17.0108    0.2487 C   0  0
   26.9725  -17.2872   -0.0882 C   0  0  2  0  0  0
   24.7671  -22.7203    0.1388 O   0  0
   23.2452  -22.4842   -0.3184 C   0  0  2  0  0  0
   22.6886  -21.2811    0.4050 O   0  0
   21.2650  -20.6110    0.0254 C   0  0  1  0  0  0
   20.1325  -21.5438   -0.1859 C   0  0  1  0  0  0
   20.3712  -23.1119   -0.3374 C   0  0  1  0  0  0
   22.0326  -23.6068    0.1905 C   0  0  1  0  0  0
   20.9748  -19.7529    1.2642 C   0  0
   27.2491  -19.2383   -1.2742 H   0  0
   25.3418  -20.0681    1.0298 H   0  0
   26.0673  -21.7563   -1.4188 H   0  0
   27.5282  -22.1317    1.3195 H   0  0
   29.5635  -21.1517    0.0955 H   0  0
   28.5318  -20.8259   -1.3184 H   0  0
   30.0837  -18.4142    0.1118 H   0  0
   29.0455  -18.3964   -1.3343 H   0  0
   28.5303  -16.8623    1.3195 H   0  0
   28.7731  -16.1447   -0.2916 H   0  0
   26.8792  -16.9550   -1.1221 H   0  0
   23.1932  -22.3345   -1.3968 H   0  0
   21.3814  -19.9693   -0.8479 H   0  0
   19.9144  -21.3074   -1.2273 H   0  0
   20.3373  -23.3079   -1.4091 H   0  0
   22.0372  -23.6181    1.2805 H   0  0
   19.9031  -19.7913    1.4594 H   0  0
   21.5140  -20.1831    2.1082 H   0  0
  3  4  1  0
  2  3  2  0
  1  3  1  0
  4  5  1  0
  4  6  1  0
  4  7  1  0
 10 11  1  0
  9 10  2  0
  8 10  1  0
 11 12  1  0
 11 13  1  0
 11 14  1  0
 16 17  2  0
 15 16  2  0
 20 21  1  0
 19 20  2  0
 18 20  1  0
 21 22  1  0
 21 23  1  0
 21 24  1  0
 27 28  1  0
 26 27  2  0
 25 27  1  0
 28 29  1  0
 28 30  1  0
 28 31  1  0
 34 35  1  0
 33 34  2  0
 32 34  1  0
 35 36  1  0
 35 37  1  0
 35 38  1  0
 41 42  1  0
 40 41  2  0
 39 41  1  0
 42 43  1  0
 42 44  1  0
 42 45  1  0
 46 47  1  0
 47 48  1  0
 48 49  1  0
 49 50  1  0
 50 51  1  0
 51 46  1  0
 51 52  1  0
 52 53  1  0
 53 54  1  0
 54 46  1  0
 48 55  1  0
 56 55  1  0
 56 57  1  0
 57 58  1  0
 58 59  1  0
 59 60  1  0
 60 61  1  0
 61 56  1  0
 58 62  1  0
 46 63  1  0
 47 64  1  0
 48 65  1  0
 49 66  1  0
 50 67  1  0
 50 68  1  0
 52 69  1  0
 52 70  1  0
 53 71  1  0
 53 72  1  0
 54 73  1  0
 56 74  1  0
 58 75  1  0
 59 76  1  0
 60 77  1  0
 61 78  1  0
 62 79  1  0
 62 80  1  0
 54  1  1  0
 47  8  1  0
 49 15  1  0
 61 18  1  0
 59 25  1  0
 60 32  1  0
 62 39  1  0
M  CHG  2  16   1  17  -1
M  END
> <Name>
25 Hattie et al., 2015

> <Clean Energy>
496.308898925781

> <Reference>
Hattie et al., 2015

> <Forcefield>
MMFF

> <ForcefieldBase>
MMFF

> <ForcefieldFFML>
<?xml version="1.0" encoding="UTF-8"?>
<!DOCTYPE ffml SYSTEM "Ffml.dtd">
<ffml version="1.0">
<forcefield name="25 Hattie et al., 2015-MMFF" derivedFrom="MMFF" base="MMFF">
<atomTypes>
<atomType
 name="O100"
 element="O"
 mass="16"
 annotation=""/>
<atomType
 name="C101"
 element="C"
 mass="12.011"
 annotation=""/>
<atomType
 name="H102"
 element="H"
 mass="1.008"
 annotation=""/>
<atomType
 name="N103"
 element="N"
 mass="14.007"
 annotation=""/>
</atomTypes>
<parameters>
</parameters>
</forcefield>
</ffml>

$$$$
27 Hattie et al., 2015
  SciTegic07212313593D

 85 87  0  0  0  0            999 V2000
   25.7048  -16.8542   -0.0812 O   0  0
   27.2196  -15.1338    0.0639 O   0  0
   26.0416  -15.5058    0.0690 C   0  0
   24.9388  -14.4894    0.1863 C   0  0
   23.9739  -14.9963    0.1738 H   0  0
   24.9942  -13.7941   -0.6514 H   0  0
   25.0480  -13.9402    1.1215 H   0  0
   24.1248  -19.3831    0.6781 O   0  0
   25.2314  -18.3666    2.4792 O   0  0
   24.1950  -18.4655    1.8183 C   0  0
   23.0013  -17.6811    2.2926 C   0  0
   22.1599  -17.8584    1.6228 H   0  0
   23.2431  -16.6183    2.2981 H   0  0
   22.7351  -17.9979    3.3011 H   0  0
   26.9744  -23.3937   -0.6172 N   0  0
   25.6030  -24.4524    0.8092 O   0  0
   26.3941  -24.4984   -0.1367 C   0  0
   26.7342  -25.8250   -0.7558 C   0  0
   27.6245  -23.5032   -1.4600 H   0  0
   27.4419  -25.6753   -1.5711 H   0  0
   25.8271  -26.2889   -1.1434 H   0  0
   27.1805  -26.4743   -0.0026 H   0  0
   22.5669  -24.6731    0.1449 O   0  0
   20.8489  -25.7280    1.3050 O   0  0
   21.8831  -25.8138    0.6517 C   0  0
   22.4491  -27.1777    0.3537 C   0  0
   23.3626  -27.0726   -0.2315 H   0  0
   21.7205  -27.7583   -0.2121 H   0  0
   22.6744  -27.6903    1.2889 H   0  0
   19.7399  -21.5157    1.0575 O   0  0
   18.2372  -19.9068    0.3751 O   0  0
   18.8361  -20.4655    1.3102 C   0  0
   18.5145  -20.0777    2.7184 C   0  0
   19.1270  -20.6615    3.4055 H   0  0
   17.4605  -20.2718    2.9175 H   0  0
   18.7213  -19.0169    2.8599 H   0  0
   19.5845  -24.1699    0.1303 O   0  0
   18.1441  -23.6139   -1.6233 O   0  0
   18.3425  -24.2372   -0.5876 C   0  0
   17.2484  -25.1179   -0.0436 C   0  0
   17.5885  -25.5951    0.8754 H   0  0
   16.9979  -25.8830   -0.7785 H   0  0
   16.3657  -24.5138    0.1666 H   0  0
   21.3827  -18.8057   -2.2527 O   0  0
   22.3160  -18.0896   -0.3817 O   0  0
   22.3277  -18.1039   -1.6016 C   0  0
   23.3403  -17.3139   -2.3624 C   0  0
   23.1855  -17.4577   -3.4317 H   0  0
   24.3416  -17.6498   -2.0924 H   0  0
   23.2344  -16.2566   -2.1194 H   0  0
   26.4001  -19.1829   -0.5036 C   0  0  2  0  0  0
   25.4129  -20.0267    0.4871 C   0  0  2  0  0  0
   25.2977  -21.4701   -0.2151 C   0  0  1  0  0  0
   26.7882  -22.0506   -0.0794 C   0  0  2  0  0  0
   27.7675  -21.1566   -0.8978 C   0  0
   27.7383  -19.7413   -0.5435 N   0  0
   28.4326  -19.3125    0.7161 C   0  0
   27.6889  -17.9704    1.0685 C   0  0
   26.8302  -17.7574   -0.1948 C   0  0  2  0  0  0
   24.3103  -22.3576    0.4329 O   0  0
   22.9517  -22.2915   -0.2809 C   0  0  2  0  0  0
   22.3729  -20.9467   -0.3158 O   0  0
   21.0769  -20.9354   -1.0807 C   0  0  1  0  0  0
   20.0174  -21.8296   -0.3272 C   0  0  1  0  0  0
   20.5777  -23.2482   -0.4571 C   0  0  1  0  0  0
   21.9432  -23.3441    0.3527 C   0  0  1  0  0  0
   20.5370  -19.5011   -1.3290 C   0  0
   25.9841  -19.2086   -1.5108 H   0  0
   25.8983  -20.1422    1.4563 H   0  0
   25.0458  -21.3472   -1.2685 H   0  0
   27.0837  -22.0398    0.9698 H   0  0
   28.7802  -21.5263   -0.7369 H   0  0
   27.5100  -21.2482   -1.9529 H   0  0
   28.3080  -20.0522    1.5069 H   0  0
   29.4950  -19.1411    0.5423 H   0  0
   27.0687  -18.0803    1.9581 H   0  0
   28.3929  -17.1512    1.2147 H   0  0
   27.4768  -17.4074   -0.9996 H   0  0
   23.1196  -22.5933   -1.3147 H   0  0
   21.2628  -21.3916   -2.0531 H   0  0
   19.0794  -21.7833   -0.8803 H   0  0
   20.7441  -23.4927   -1.5062 H   0  0
   21.7851  -23.1466    1.4130 H   0  0
   19.5292  -19.5623   -1.7399 H   0  0
   20.5124  -18.9576   -0.3845 H   0  0
  3  4  1  0
  2  3  2  0
  1  3  1  0
  4  5  1  0
  4  6  1  0
  4  7  1  0
 10 11  1  0
  9 10  2  0
  8 10  1  0
 11 12  1  0
 11 13  1  0
 11 14  1  0
 17 18  1  0
 16 17  2  0
 15 17  1  0
 15 19  1  0
 18 20  1  0
 18 21  1  0
 18 22  1  0
 25 26  1  0
 24 25  2  0
 23 25  1  0
 26 27  1  0
 26 28  1  0
 26 29  1  0
 32 33  1  0
 31 32  2  0
 30 32  1  0
 33 34  1  0
 33 35  1  0
 33 36  1  0
 39 40  1  0
 38 39  2  0
 37 39  1  0
 40 41  1  0
 40 42  1  0
 40 43  1  0
 46 47  1  0
 45 46  2  0
 44 46  1  0
 47 48  1  0
 47 49  1  0
 47 50  1  0
 51 52  1  0
 52 53  1  0
 53 54  1  0
 54 55  1  0
 55 56  1  0
 56 51  1  0
 56 57  1  0
 57 58  1  0
 58 59  1  0
 59 51  1  0
 53 60  1  0
 61 60  1  0
 61 62  1  0
 62 63  1  0
 63 64  1  0
 64 65  1  0
 65 66  1  0
 66 61  1  0
 63 67  1  0
 51 68  1  0
 52 69  1  0
 53 70  1  0
 54 71  1  0
 55 72  1  0
 55 73  1  0
 57 74  1  0
 57 75  1  0
 58 76  1  0
 58 77  1  0
 59 78  1  0
 61 79  1  0
 63 80  1  0
 64 81  1  0
 65 82  1  0
 66 83  1  0
 67 84  1  0
 67 85  1  0
 59  1  1  0
 52  8  1  0
 54 15  1  0
 66 23  1  0
 64 30  1  0
 65 37  1  0
 67 44  1  0
M  END
> <Name>
27 Hattie et al., 2015

> <Clean Energy>
66.5691757202148

> <Reference>
Hattie et al., 2015

> <Forcefield>
MMFF

> <ForcefieldBase>
MMFF

> <ForcefieldFFML>
<?xml version="1.0" encoding="UTF-8"?>
<!DOCTYPE ffml SYSTEM "Ffml.dtd">
<ffml version="1.0">
<forcefield name="27 Hattie et al., 2015-MMFF" derivedFrom="MMFF" base="MMFF">
<atomTypes>
<atomType
 name="O100"
 element="O"
 mass="16"
 annotation=""/>
<atomType
 name="C101"
 element="C"
 mass="12.011"
 annotation=""/>
<atomType
 name="H102"
 element="H"
 mass="1.008"
 annotation=""/>
<atomType
 name="N103"
 element="N"
 mass="14.007"
 annotation=""/>
</atomTypes>
<parameters>
</parameters>
</forcefield>
</ffml>

$$$$
26 Hattie et al., 2015
  SciTegic07212313593D

 80 82  0  0  0  0            999 V2000
   20.4631  -13.0423   -0.5799 O   0  0
   21.5612  -11.2455    0.4301 O   0  0
   20.7315  -11.6362   -0.3693 C   0  0
   20.1793  -10.6213   -1.2680 C   0  0
   19.4514  -11.0832   -1.9350 H   0  0
   20.9835  -10.1810   -1.8576 H   0  0
   19.6912   -9.8429   -0.6815 H   0  0
   23.7641  -11.2379    0.4539 O   0  0
   25.9087  -10.5278   -0.2467 O   0  0
   24.7945  -10.2187    0.1812 C   0  0
   24.4679   -8.7233    0.3192 C   0  0
   23.4558   -8.6062    0.7064 H   0  0
   24.5408   -8.2433   -0.6567 H   0  0
   25.1751   -8.2583    1.0061 H   0  0
   21.8548  -19.0348   -0.0158 N   0  0
   22.1250  -20.2192   -0.0623 N   0  3
   22.3570  -21.3952   -0.0914 N   0  5
   15.4842  -13.9297   -0.1130 C   0  0  2  0  0  0
   15.4565  -15.6213   -0.2721 C   0  0  1  0  0  0
   17.0042  -16.4484    0.2640 C   0  0  2  0  0  0
   18.3580  -15.5795   -0.2234 C   0  0  1  0  0  0
   18.1990  -14.2010    0.4485 O   0  0
   16.9980  -13.2049    0.0350 C   0  0  2  0  0  0
   17.1113  -11.8271    0.9044 C   0  0
   14.3591  -13.1948    0.4895 O   0  0
   14.2477  -16.3756    0.2754 O   0  0
   19.7103  -16.1708    0.2244 O   0  0
   17.0238  -17.9357   -0.2370 O   0  0
   21.0711  -15.5394   -0.2216 C   0  0  2  0  0  0
   18.2552  -10.8355    0.7669 O   0  0
   18.0222   -9.2574    0.4709 C   0  0
   19.0068   -8.4920    0.3557 O   0  0
   16.7177   -8.6143    0.1750 C   0  0
   14.1614  -11.7797    0.1060 C   0  0
   12.8603  -11.1176    0.2938 C   0  0
   15.0228  -11.0927   -0.4429 O   0  0
   12.9265  -15.7326    0.0889 C   0  0
   11.6558  -16.4789    0.3027 C   0  0
   12.7875  -14.5812   -0.3135 O   0  0
   18.2685  -18.7712   -0.0896 C   0  0
   18.2380  -20.2601   -0.2913 C   0  0
   19.3577  -18.3119    0.2280 O   0  0
   22.5042  -16.3080    0.1387 C   0  0  2  0  0  0
   23.4329  -15.0955   -0.4534 N   0  0
   22.9253  -13.9009    0.2113 C   0  0  2  0  0  0
   21.2990  -13.9766    0.2593 C   0  0  1  0  0  0
   24.9541  -14.9870   -0.1702 C   0  0
   25.2164  -13.4327    0.3183 C   0  0
   23.9549  -12.6591   -0.1354 C   0  0  2  0  0  0
   22.7786  -17.8841   -0.5100 C   0  0
   15.2933  -13.6745   -1.1554 H   0  0
   15.4173  -15.7914   -1.3481 H   0  0
   17.0036  -16.4698    1.3538 H   0  0
   18.3490  -15.4630   -1.3071 H   0  0
   17.2457  -12.8983   -0.9812 H   0  0
   16.2030  -11.2643    0.6888 H   0  0
   17.1091  -12.1347    1.9501 H   0  0
   21.0292  -15.5030   -1.3102 H   0  0
   16.8659   -7.5458    0.0190 H   0  0
   16.0380   -8.7678    1.0132 H   0  0
   16.2899   -9.0565   -0.7248 H   0  0
   12.9246  -10.0851   -0.0494 H   0  0
   12.5936  -11.1327    1.3506 H   0  0
   12.0979  -11.6440   -0.2805 H   0  0
   10.8097  -15.8189    0.1118 H   0  0
   11.6124  -16.8361    1.3317 H   0  0
   11.6140  -17.3288   -0.3785 H   0  0
   19.2369  -20.6685   -0.1386 H   0  0
   17.9059  -20.4831   -1.3053 H   0  0
   17.5489  -20.7100    0.4235 H   0  0
   22.6218  -16.3463    1.2217 H   0  0
   23.1808  -14.1082    1.2504 H   0  0
   20.9802  -13.8856    1.2976 H   0  0
   25.2435  -15.6847    0.6156 H   0  0
   25.5237  -15.2008   -1.0745 H   0  0
   25.3278  -13.3841    1.4015 H   0  0
   26.1084  -13.0258   -0.1579 H   0  0
   24.0004  -12.5623   -1.2202 H   0  0
   22.6652  -17.8162   -1.5919 H   0  0
   23.8045  -18.1625   -0.2684 H   0  0
  3  4  1  0
  2  3  2  0
  1  3  1  0
  4  5  1  0
  4  6  1  0
  4  7  1  0
 10 11  1  0
  9 10  2  0
  8 10  1  0
 11 12  1  0
 11 13  1  0
 11 14  1  0
 16 17  2  0
 15 16  2  0
 18 19  1  0
 19 20  1  0
 20 21  1  0
 21 22  1  0
 22 23  1  0
 23 18  1  0
 23 24  1  0
 18 25  1  0
 19 26  1  0
 21 27  1  0
 20 28  1  0
 29 27  1  0
 24 30  1  0
 30 31  1  0
 31 32  2  0
 31 33  1  0
 25 34  1  0
 34 35  1  0
 34 36  2  0
 26 37  1  0
 37 38  1  0
 37 39  2  0
 28 40  1  0
 40 41  1  0
 40 42  2  0
 29 43  1  0
 43 44  1  0
 44 45  1  0
 45 46  1  0
 46 29  1  0
 44 47  1  0
 47 48  1  0
 48 49  1  0
 49 45  1  0
 43 50  1  0
 18 51  1  0
 19 52  1  0
 20 53  1  0
 21 54  1  0
 23 55  1  0
 24 56  1  0
 24 57  1  0
 29 58  1  0
 33 59  1  0
 33 60  1  0
 33 61  1  0
 35 62  1  0
 35 63  1  0
 35 64  1  0
 38 65  1  0
 38 66  1  0
 38 67  1  0
 41 68  1  0
 41 69  1  0
 41 70  1  0
 43 71  1  0
 45 72  1  0
 46 73  1  0
 47 74  1  0
 47 75  1  0
 48 76  1  0
 48 77  1  0
 49 78  1  0
 50 79  1  0
 50 80  1  0
 46  1  1  0
 49  8  1  0
 50 15  1  0
M  CHG  2  16   1  17  -1
M  END
> <Name>
26 Hattie et al., 2015

> <Clean Energy>
472.233764648438

> <Reference>
Hattie et al., 2015

> <Forcefield>
MMFF

> <ForcefieldBase>
MMFF

> <ForcefieldFFML>
<?xml version="1.0" encoding="UTF-8"?>
<!DOCTYPE ffml SYSTEM "Ffml.dtd">
<ffml version="1.0">
<forcefield name="26 Hattie et al., 2015-MMFF" derivedFrom="MMFF" base="MMFF">
<atomTypes>
<atomType
 name="O100"
 element="O"
 mass="16"
 annotation=""/>
<atomType
 name="C101"
 element="C"
 mass="12.011"
 annotation=""/>
<atomType
 name="H102"
 element="H"
 mass="1.008"
 annotation=""/>
<atomType
 name="N103"
 element="N"
 mass="14.007"
 annotation=""/>
</atomTypes>
<parameters>
</parameters>
</forcefield>
</ffml>

$$$$
28 Hattie et al., 2015
  SciTegic07212313593D

 85 87  0  0  0  0            999 V2000
   23.8336  -16.6521   -0.9793 O   0  0
   24.4284  -14.7480    0.1751 O   0  0
   24.0413  -15.2576   -0.8850 C   0  0
   23.8207  -14.3857   -2.0855 C   0  0
   23.4836  -14.9974   -2.9224 H   0  0
   24.7542  -13.8898   -2.3515 H   0  0
   23.0637  -13.6357   -1.8563 H   0  0
   26.7957  -15.3033    0.8885 O   0  0
   28.4203  -14.4793   -0.5159 O   0  0
   27.7159  -14.3182    0.4892 C   0  0
   27.7929  -13.0247    1.2412 C   0  0
   27.1109  -13.0567    2.0908 H   0  0
   27.5126  -12.2033    0.5818 H   0  0
   28.8111  -12.8718    1.5989 H   0  0
   25.2241  -21.9712    0.3892 N   0  0
   23.4158  -22.3204   -0.8337 O   0  0
   24.1159  -22.6221    0.1399 C   0  0
   23.7381  -23.7477    1.0559 C   0  0
   25.7828  -22.2305    1.2642 H   0  0
   24.4864  -23.8433    1.8426 H   0  0
   23.6874  -24.6771    0.4886 H   0  0
   22.7656  -23.5421    1.5032 H   0  0
   18.8379  -17.4652   -0.1916 C   0  0  2  0  0  0
   18.9413  -18.9261   -0.5621 C   0  0  1  0  0  0
   20.0905  -19.5817    0.1627 C   0  0  2  0  0  0
   21.4664  -18.8489   -0.2327 C   0  0  1  0  0  0
   21.3324  -17.4278    0.1473 O   0  0
   20.2127  -16.7755   -0.5677 C   0  0  2  0  0  0
   20.1319  -15.2765   -0.2052 C   0  0
   18.5109  -17.3989    1.2348 O   0  0
   17.7414  -19.6498   -0.1570 O   0  0
   22.6805  -19.4799    0.4141 O   0  0
   19.9481  -20.9465   -0.2636 O   0  0
   24.0145  -18.8978   -0.0231 C   0  0  2  0  0  0
   21.2859  -14.5392   -0.4765 O   0  0
   21.1165  -13.2060   -0.0357 C   0  0
   22.0396  -12.3972   -0.1776 O   0  0
   19.8290  -12.7518    0.6148 C   0  0
   17.7313  -16.2483    1.5720 C   0  0
   17.3323  -15.9985    2.9905 C   0  0
   17.3397  -15.4725    0.6895 O   0  0
   16.5296  -19.2747   -0.7604 C   0  0
   15.2676  -19.9676   -0.3344 C   0  0
   16.4777  -18.3990   -1.6316 O   0  0
   20.6519  -21.8909    0.4112 C   0  0
   20.4288  -23.3307    0.0281 C   0  0
   21.3720  -21.5930    1.3698 O   0  0
   25.4648  -19.5500    0.1474 C   0  0  2  0  0  0
   26.2221  -18.5304   -0.6304 N   0  0
   25.8733  -17.5203    0.2498 C   0  0  2  0  0  0
   24.3098  -17.3538    0.1930 C   0  0  1  0  0  0
   27.7271  -18.5944   -0.5874 C   0  0
   28.1115  -17.3356    0.2671 C   0  0
   26.8839  -16.4417    0.0274 C   0  0  2  0  0  0
   25.7158  -20.9430   -0.4436 C   0  0
   18.0349  -17.0041   -0.7666 H   0  0
   19.0828  -19.0230   -1.6386 H   0  0
   19.9334  -19.5139    1.2392 H   0  0
   21.5862  -18.9049   -1.3146 H   0  0
   20.3747  -16.8717   -1.6414 H   0  0
   19.3097  -14.8365   -0.7694 H   0  0
   19.9241  -15.1980    0.8619 H   0  0
   23.9041  -18.9323   -1.1069 H   0  0
   19.9065  -11.6968    0.8775 H   0  0
   19.6503  -13.3380    1.5163 H   0  0
   19.0009  -12.8928   -0.0799 H   0  0
   16.7468  -15.0810    3.0476 H   0  0
   18.2253  -15.8980    3.6073 H   0  0
   16.7333  -16.8342    3.3525 H   0  0
   14.4239  -19.5633   -0.8938 H   0  0
   15.1064  -19.8071    0.7316 H   0  0
   15.3549  -21.0361   -0.5314 H   0  0
   21.0546  -23.9732    0.6473 H   0  0
   20.6891  -23.4727   -1.0208 H   0  0
   19.3809  -23.5895    0.1802 H   0  0
   25.7675  -19.5256    1.1943 H   0  0
   26.0862  -17.9158    1.2429 H   0  0
   23.8894  -16.9660    1.1209 H   0  0
   28.0662  -19.5120   -0.1067 H   0  0
   28.1503  -18.5309   -1.5898 H   0  0
   28.2259  -17.5860    1.3217 H   0  0
   29.0261  -16.8674   -0.0969 H   0  0
   26.8583  -16.1204   -1.0139 H   0  0
   25.2195  -21.0081   -1.4119 H   0  0
   26.7891  -21.0805   -0.5748 H   0  0
  3  4  1  0
  2  3  2  0
  1  3  1  0
  4  5  1  0
  4  6  1  0
  4  7  1  0
 10 11  1  0
  9 10  2  0
  8 10  1  0
 11 12  1  0
 11 13  1  0
 11 14  1  0
 17 18  1  0
 16 17  2  0
 15 17  1  0
 15 19  1  0
 18 20  1  0
 18 21  1  0
 18 22  1  0
 23 24  1  0
 24 25  1  0
 25 26  1  0
 26 27  1  0
 27 28  1  0
 28 23  1  0
 28 29  1  0
 23 30  1  0
 24 31  1  0
 26 32  1  0
 25 33  1  0
 34 32  1  0
 29 35  1  0
 35 36  1  0
 36 37  2  0
 36 38  1  0
 30 39  1  0
 39 40  1  0
 39 41  2  0
 31 42  1  0
 42 43  1  0
 42 44  2  0
 33 45  1  0
 45 46  1  0
 45 47  2  0
 34 48  1  0
 48 49  1  0
 49 50  1  0
 50 51  1  0
 51 34  1  0
 49 52  1  0
 52 53  1  0
 53 54  1  0
 54 50  1  0
 48 55  1  0
 23 56  1  0
 24 57  1  0
 25 58  1  0
 26 59  1  0
 28 60  1  0
 29 61  1  0
 29 62  1  0
 34 63  1  0
 38 64  1  0
 38 65  1  0
 38 66  1  0
 40 67  1  0
 40 68  1  0
 40 69  1  0
 43 70  1  0
 43 71  1  0
 43 72  1  0
 46 73  1  0
 46 74  1  0
 46 75  1  0
 48 76  1  0
 50 77  1  0
 51 78  1  0
 52 79  1  0
 52 80  1  0
 53 81  1  0
 53 82  1  0
 54 83  1  0
 55 84  1  0
 55 85  1  0
 51  1  1  0
 54  8  1  0
 55 15  1  0
M  END
> <Name>
28 Hattie et al., 2015

> <Clean Energy>
114.098472595215

> <Reference>
Hattie et al., 2015

> <Forcefield>
MMFF

> <ForcefieldBase>
MMFF

> <ForcefieldFFML>
<?xml version="1.0" encoding="UTF-8"?>
<!DOCTYPE ffml SYSTEM "Ffml.dtd">
<ffml version="1.0">
<forcefield name="28 Hattie et al., 2015-MMFF" derivedFrom="MMFF" base="MMFF">
<atomTypes>
<atomType
 name="O100"
 element="O"
 mass="16"
 annotation=""/>
<atomType
 name="C101"
 element="C"
 mass="12.011"
 annotation=""/>
<atomType
 name="H102"
 element="H"
 mass="1.008"
 annotation=""/>
<atomType
 name="N103"
 element="N"
 mass="14.007"
 annotation=""/>
</atomTypes>
<parameters>
</parameters>
</forcefield>
</ffml>

$$$$
1 Pingitore et al., 2022
  SciTegic07212313593D

 30 30  0  0  0  0            999 V2000
   26.4995  -35.6793   -0.2240 C   0  0  2  0  0  0
   26.9461  -37.0358    0.3222 C   0  0  2  0  0  0
   28.2951  -37.0282   -0.3448 C   0  0  1  0  0  0
   28.7704  -35.7272    0.3046 C   0  0  2  0  0  0
   27.6469  -34.7657    0.0730 N   0  0
   29.1281  -38.1481   -0.0388 O   0  0
   25.1484  -35.1799    0.3147 C   0  0
   30.1345  -35.2147   -0.1798 C   0  0
   26.0844  -38.1085   -0.0630 O   0  0
   24.1229  -36.1166   -0.0192 O   0  0
   31.1432  -36.1934    0.0918 N   0  0
   32.4247  -35.8811   -0.0642 C   0  0
   33.4876  -36.9009    0.2185 C   0  0
   32.7421  -34.7447   -0.4383 O   0  0
   26.4148  -35.7672   -1.3071 H   0  0
   27.0526  -36.9980    1.4063 H   0  0
   28.1921  -36.9066   -1.4231 H   0  0
   28.8432  -35.8998    1.3783 H   0  0
   27.8534  -34.1214   -0.7559 H   0  0
   29.3053  -38.1808    0.9956 H   0  0
   25.2061  -35.0764    1.3983 H   0  0
   24.9154  -34.2130   -0.1313 H   0  0
   30.0909  -35.0280   -1.2528 H   0  0
   30.3791  -34.2888    0.3409 H   0  0
   25.1149  -37.9256    0.2966 H   0  0
   24.0663  -36.2170   -1.0628 H   0  0
   30.8657  -37.1735    0.4194 H   0  0
   34.4691  -36.4638    0.0353 H   0  0
   33.3470  -37.7632   -0.4332 H   0  0
   33.4201  -37.2178    1.2593 H   0  0
  1  2  1  0
  2  3  1  0
  3  4  1  0
  4  5  1  0
  5  1  1  0
  3  6  1  0
  1  7  1  0
  4  8  1  0
  2  9  1  0
  7 10  1  0
  8 11  1  0
 11 12  1  0
 12 13  1  0
 12 14  2  0
  1 15  1  0
  2 16  1  0
  3 17  1  0
  4 18  1  0
  5 19  1  0
  6 20  1  0
  7 21  1  0
  7 22  1  0
  8 23  1  0
  8 24  1  0
  9 25  1  0
 10 26  1  0
 11 27  1  0
 13 28  1  0
 13 29  1  0
 13 30  1  0
M  END
> <Name>
1 Pingitore et al., 2022

> <Clean Energy>
29.8543701171875

> <Reference>
Pingitore et al., 2022

> <Ki>
40nM

> <Forcefield>
MMFF

> <ForcefieldBase>
MMFF

> <ForcefieldFFML>
<?xml version="1.0" encoding="UTF-8"?>
<!DOCTYPE ffml SYSTEM "Ffml.dtd">
<ffml version="1.0">
<forcefield name="1 Pingitore et al., 2022-MMFF" derivedFrom="MMFF" base="MMFF">
<atomTypes>
<atomType
 name="C100"
 element="C"
 mass="12.011"
 annotation=""/>
<atomType
 name="N101"
 element="N"
 mass="14.007"
 annotation=""/>
<atomType
 name="O102"
 element="O"
 mass="16"
 annotation=""/>
<atomType
 name="H103"
 element="H"
 mass="1.008"
 annotation=""/>
</atomTypes>
<parameters>
</parameters>
</forcefield>
</ffml>

$$$$
2a Pingitore et al., 2022
  SciTegic07212313593D

 37 38  0  0  0  0            999 V2000
   24.2734  -37.5175   -0.1775 C   0  0  2  0  0  0
   24.6563  -38.9150    0.3130 C   0  0  2  0  0  0
   25.9930  -38.9503   -0.3865 C   0  0  1  0  0  0
   26.5528  -37.7015    0.2956 C   0  0  2  0  0  0
   25.4695  -36.6783    0.1385 N   0  0
   26.7769  -40.1207   -0.1460 O   0  0
   22.9571  -36.9631    0.3932 C   0  0
   27.9209  -37.2153   -0.2172 C   0  0
   23.7321  -39.9258   -0.0947 O   0  0
   21.8768  -37.8261    0.0340 O   0  0
   28.9427  -38.2143   -0.0694 N   0  0
   30.2143  -37.8264   -0.1459 C   0  0
   31.3083  -38.7897   -0.0341 C   0  0
   30.4753  -36.6314   -0.3199 O   0  0
   31.0557  -40.0873    0.1244 C   0  0
   32.1680  -41.0400    0.2259 C   0  0
   33.4269  -40.6075    0.1590 C   0  0
   33.7026  -39.1800   -0.0150 C   0  0
   32.6941  -38.3154   -0.1072 C   0  0
   24.1741  -37.5608   -1.2622 H   0  0
   24.7857  -38.9230    1.3952 H   0  0
   25.8715  -38.7821   -1.4565 H   0  0
   26.6537  -37.9194    1.3588 H   0  0
   25.6894  -36.0024   -0.6612 H   0  0
   26.9762  -40.2041    0.8815 H   0  0
   23.0289  -36.9049    1.4793 H   0  0
   22.7765  -35.9679   -0.0133 H   0  0
   27.8294  -36.9606   -1.2731 H   0  0
   28.2123  -36.3293    0.3469 H   0  0
   22.7797  -39.7049    0.2882 H   0  0
   21.8064  -37.8828   -1.0121 H   0  0
   28.6893  -39.2404    0.0973 H   0  0
   30.0262  -40.4412    0.1786 H   0  0
   31.9640  -42.1027    0.3561 H   0  0
   34.2514  -41.3165    0.2339 H   0  0
   34.7319  -38.8256   -0.0689 H   0  0
   32.8991  -37.2528   -0.2374 H   0  0
  1  2  1  0
  2  3  1  0
  3  4  1  0
  4  5  1  0
  5  1  1  0
  3  6  1  0
  1  7  1  0
  4  8  1  0
  2  9  1  0
  7 10  1  0
  8 11  1  0
 11 12  1  0
 12 13  1  0
 12 14  2  0
 13 15  2  0
 15 16  1  0
 16 17  2  0
 17 18  1  0
 18 19  2  0
 19 13  1  0
  1 20  1  0
  2 21  1  0
  3 22  1  0
  4 23  1  0
  5 24  1  0
  6 25  1  0
  7 26  1  0
  7 27  1  0
  8 28  1  0
  8 29  1  0
  9 30  1  0
 10 31  1  0
 11 32  1  0
 15 33  1  0
 16 34  1  0
 17 35  1  0
 18 36  1  0
 19 37  1  0
M  END
> <Name>
2a Pingitore et al., 2022

> <Clean Energy>
29.3124942779541

> <Reference>
Pingitore et al., 2022

> <Forcefield>
MMFF

> <ForcefieldBase>
MMFF

> <ForcefieldFFML>
<?xml version="1.0" encoding="UTF-8"?>
<!DOCTYPE ffml SYSTEM "Ffml.dtd">
<ffml version="1.0">
<forcefield name="2a Pingitore et al., 2022-MMFF" derivedFrom="MMFF" base="MMFF">
<atomTypes>
<atomType
 name="C100"
 element="C"
 mass="12.011"
 annotation=""/>
<atomType
 name="N101"
 element="N"
 mass="14.007"
 annotation=""/>
<atomType
 name="O102"
 element="O"
 mass="16"
 annotation=""/>
<atomType
 name="H103"
 element="H"
 mass="1.008"
 annotation=""/>
</atomTypes>
<parameters>
</parameters>
</forcefield>
</ffml>

$$$$
2b Pingitore et al., 2022
  SciTegic07212313593D

 33 33  0  0  0  0            999 V2000
   20.6554  -20.9909   -0.2243 C   0  0  2  0  0  0
   21.0858  -22.3523    0.3231 C   0  0  2  0  0  0
   22.4351  -22.3610   -0.3440 C   0  0  1  0  0  0
   22.9257  -21.0649    0.3040 C   0  0  2  0  0  0
   21.8130  -20.0910    0.0723 N   0  0
   23.2553  -23.4902   -0.0375 O   0  0
   19.3102  -20.4744    0.3132 C   0  0
   24.2945  -20.5657   -0.1820 C   0  0
   20.2113  -23.4149   -0.0615 O   0  0
   18.2733  -21.3983   -0.0206 O   0  0
   25.2993  -21.5485    0.0898 N   0  0
   26.5807  -21.2349   -0.0629 C   0  0
   27.6461  -22.2512    0.2216 C   0  0
   26.8965  -20.0970   -0.4341 O   0  0
   29.0322  -21.6193   -0.0069 C   0  0
   20.5702  -21.0787   -1.3074 H   0  0
   21.1926  -22.3150    1.4073 H   0  0
   22.3334  -22.2390   -1.4224 H   0  0
   22.9975  -21.2373    1.3779 H   0  0
   22.0268  -19.4493   -0.7568 H   0  0
   23.4324  -23.5243    0.9969 H   0  0
   19.3685  -20.3709    1.3967 H   0  0
   19.0895  -19.5049   -0.1336 H   0  0
   24.2511  -20.3816   -1.2554 H   0  0
   24.5457  -19.6402    0.3361 H   0  0
   19.2440  -23.2202    0.2976 H   0  0
   18.2159  -21.4988   -1.0643 H   0  0
   25.0197  -22.5292    0.4139 H   0  0
   27.5644  -22.5832    1.2566 H   0  0
   27.5216  -23.1045   -0.4451 H   0  0
   29.8072  -22.3574    0.1997 H   0  0
   29.1573  -20.7658    0.6595 H   0  0
   29.1145  -21.2869   -1.0417 H   0  0
  1  2  1  0
  2  3  1  0
  3  4  1  0
  4  5  1  0
  5  1  1  0
  3  6  1  0
  1  7  1  0
  4  8  1  0
  2  9  1  0
  7 10  1  0
  8 11  1  0
 11 12  1  0
 12 13  1  0
 12 14  2  0
 15 13  1  0
  1 16  1  0
  2 17  1  0
  3 18  1  0
  4 19  1  0
  5 20  1  0
  6 21  1  0
  7 22  1  0
  7 23  1  0
  8 24  1  0
  8 25  1  0
  9 26  1  0
 10 27  1  0
 11 28  1  0
 13 29  1  0
 13 30  1  0
 15 31  1  0
 15 32  1  0
 15 33  1  0
M  END
> <Name>
2b Pingitore et al., 2022

> <Clean Energy>
29.6698474884033

> <Reference>
Pingitore et al., 2022

> <Forcefield>
MMFF

> <ForcefieldBase>
MMFF

> <ForcefieldFFML>
<?xml version="1.0" encoding="UTF-8"?>
<!DOCTYPE ffml SYSTEM "Ffml.dtd">
<ffml version="1.0">
<forcefield name="2b Pingitore et al., 2022-MMFF" derivedFrom="MMFF" base="MMFF">
<atomTypes>
<atomType
 name="C100"
 element="C"
 mass="12.011"
 annotation=""/>
<atomType
 name="N101"
 element="N"
 mass="14.007"
 annotation=""/>
<atomType
 name="O102"
 element="O"
 mass="16"
 annotation=""/>
<atomType
 name="H103"
 element="H"
 mass="1.008"
 annotation=""/>
</atomTypes>
<parameters>
</parameters>
</forcefield>
</ffml>

$$$$
2c Pingitore et al., 2022
  SciTegic07212313593D

 36 36  0  0  0  0            999 V2000
   21.7977  -31.1886   -0.2126 C   0  0  2  0  0  0
   22.2154  -32.5592    0.3221 C   0  0  2  0  0  0
   23.5645  -32.5737   -0.3465 C   0  0  1  0  0  0
   24.0681  -31.2886    0.3130 C   0  0  2  0  0  0
   22.9634  -30.3027    0.0935 N   0  0
   24.3751  -33.7131   -0.0526 O   0  0
   20.4572  -30.6640    0.3285 C   0  0
   25.4393  -30.7942   -0.1727 C   0  0
   21.3309  -33.6098   -0.0727 O   0  0
   19.4115  -31.5742   -0.0156 O   0  0
   26.4451  -31.7821    0.0804 N   0  0
   27.7236  -31.4671   -0.0941 C   0  0
   28.7984  -32.4795    0.1646 C   0  0
   28.0301  -30.3270   -0.4673 O   0  0
   30.1735  -31.8355   -0.0985 C   0  0
   31.2869  -32.8648    0.1641 C   0  0
   21.7128  -31.2652   -1.2966 H   0  0
   22.3230  -32.5333    1.4064 H   0  0
   23.4627  -32.4403   -1.4235 H   0  0
   24.1416  -31.4720    1.3849 H   0  0
   23.1820  -29.6533   -0.7283 H   0  0
   24.5529  -33.7594    0.9813 H   0  0
   20.5152  -30.5717    1.4130 H   0  0
   20.2467  -29.6880   -0.1089 H   0  0
   25.3912  -30.5971   -1.2436 H   0  0
   25.6973  -29.8759    0.3550 H   0  0
   20.3655  -33.4093    0.2883 H   0  0
   19.3544  -31.6637   -1.0602 H   0  0
   26.1695  -32.7632    0.4065 H   0  0
   28.7440  -32.8123    1.2011 H   0  0
   28.6626  -33.3333   -0.4993 H   0  0
   30.2251  -31.5025   -1.1351 H   0  0
   30.3062  -30.9810    0.5651 H   0  0
   32.2578  -32.4062   -0.0229 H   0  0
   31.1557  -33.7198   -0.4992 H   0  0
   31.2368  -33.1985    1.2005 H   0  0
  1  2  1  0
  2  3  1  0
  3  4  1  0
  4  5  1  0
  5  1  1  0
  3  6  1  0
  1  7  1  0
  4  8  1  0
  2  9  1  0
  7 10  1  0
  8 11  1  0
 11 12  1  0
 12 13  1  0
 12 14  2  0
 15 13  1  0
 15 16  1  0
  1 17  1  0
  2 18  1  0
  3 19  1  0
  4 20  1  0
  5 21  1  0
  6 22  1  0
  7 23  1  0
  7 24  1  0
  8 25  1  0
  8 26  1  0
  9 27  1  0
 10 28  1  0
 11 29  1  0
 13 30  1  0
 13 31  1  0
 15 32  1  0
 15 33  1  0
 16 34  1  0
 16 35  1  0
 16 36  1  0
M  END
> <Name>
2c Pingitore et al., 2022

> <Clean Energy>
29.5327777862549

> <Reference>
Pingitore et al., 2022

> <Forcefield>
MMFF

> <ForcefieldBase>
MMFF

> <ForcefieldFFML>
<?xml version="1.0" encoding="UTF-8"?>
<!DOCTYPE ffml SYSTEM "Ffml.dtd">
<ffml version="1.0">
<forcefield name="2c Pingitore et al., 2022-MMFF" derivedFrom="MMFF" base="MMFF">
<atomTypes>
<atomType
 name="C100"
 element="C"
 mass="12.011"
 annotation=""/>
<atomType
 name="N101"
 element="N"
 mass="14.007"
 annotation=""/>
<atomType
 name="O102"
 element="O"
 mass="16"
 annotation=""/>
<atomType
 name="H103"
 element="H"
 mass="1.008"
 annotation=""/>
</atomTypes>
<parameters>
</parameters>
</forcefield>
</ffml>

$$$$
2d Pingitore et al., 2022
  SciTegic07212313593D

 39 39  0  0  0  0            999 V2000
   21.5458  -43.5997   -0.2149 C   0  0  2  0  0  0
   21.9531  -44.9731    0.3204 C   0  0  2  0  0  0
   23.3018  -44.9987   -0.3486 C   0  0  1  0  0  0
   23.8161  -43.7176    0.3102 C   0  0  2  0  0  0
   22.7190  -42.7226    0.0896 N   0  0
   24.1030  -46.1445   -0.0536 O   0  0
   20.2094  -43.0650    0.3274 C   0  0
   25.1928  -43.2355   -0.1750 C   0  0
   21.0602  -46.0169   -0.0732 O   0  0
   19.1567  -43.9680   -0.0148 O   0  0
   26.1881  -44.2348    0.0807 N   0  0
   27.4723  -43.9319   -0.0863 C   0  0
   28.5333  -44.9596    0.1763 C   0  0
   27.7934  -42.7966   -0.4535 O   0  0
   29.9170  -44.3295   -0.0748 C   0  0
   31.0182  -45.3709    0.1911 C   0  0
   32.3973  -44.7322   -0.0586 C   0  0
   21.4591  -43.6765   -1.2987 H   0  0
   22.0614  -44.9472    1.4047 H   0  0
   23.2010  -44.8652   -1.4256 H   0  0
   23.8874  -43.9010    1.3823 H   0  0
   22.9427  -42.0762   -0.7333 H   0  0
   24.2806  -46.1913    0.9802 H   0  0
   20.2694  -42.9723    1.4118 H   0  0
   20.0055  -42.0879   -0.1106 H   0  0
   25.1478  -43.0388   -1.2461 H   0  0
   25.4594  -42.3195    0.3523 H   0  0
   20.0966  -45.8087    0.2883 H   0  0
   19.0977  -44.0579   -1.0593 H   0  0
   25.9009  -45.2141    0.4025 H   0  0
   28.4676  -45.2960    1.2110 H   0  0
   28.3922  -45.8090   -0.4920 H   0  0
   29.9792  -43.9931   -1.1097 H   0  0
   30.0541  -43.4791    0.5931 H   0  0
   30.9563  -45.7096    1.2253 H   0  0
   30.8845  -46.2205   -0.4786 H   0  0
   33.1787  -45.4686    0.1293 H   0  0
   32.5312  -43.8824    0.6107 H   0  0
   32.4595  -44.3932   -1.0926 H   0  0
  1  2  1  0
  2  3  1  0
  3  4  1  0
  4  5  1  0
  5  1  1  0
  3  6  1  0
  1  7  1  0
  4  8  1  0
  2  9  1  0
  7 10  1  0
  8 11  1  0
 11 12  1  0
 12 13  1  0
 12 14  2  0
 15 13  1  0
 15 16  1  0
 16 17  1  0
  1 18  1  0
  2 19  1  0
  3 20  1  0
  4 21  1  0
  5 22  1  0
  6 23  1  0
  7 24  1  0
  7 25  1  0
  8 26  1  0
  8 27  1  0
  9 28  1  0
 10 29  1  0
 11 30  1  0
 13 31  1  0
 13 32  1  0
 15 33  1  0
 15 34  1  0
 16 35  1  0
 16 36  1  0
 17 37  1  0
 17 38  1  0
 17 39  1  0
M  END
> <Name>
2d Pingitore et al., 2022

> <Clean Energy>
29.3769817352295

> <Reference>
Pingitore et al., 2022

> <Forcefield>
MMFF

> <ForcefieldBase>
MMFF

> <ForcefieldFFML>
<?xml version="1.0" encoding="UTF-8"?>
<!DOCTYPE ffml SYSTEM "Ffml.dtd">
<ffml version="1.0">
<forcefield name="2d Pingitore et al., 2022-MMFF" derivedFrom="MMFF" base="MMFF">
<atomTypes>
<atomType
 name="C100"
 element="C"
 mass="12.011"
 annotation=""/>
<atomType
 name="N101"
 element="N"
 mass="14.007"
 annotation=""/>
<atomType
 name="O102"
 element="O"
 mass="16"
 annotation=""/>
<atomType
 name="H103"
 element="H"
 mass="1.008"
 annotation=""/>
</atomTypes>
<parameters>
</parameters>
</forcefield>
</ffml>

$$$$
2e Pingitore et al., 2022
  SciTegic07212313593D

 42 42  0  0  0  0            999 V2000
   21.8192  -53.1405   -0.2115 C   0  0  2  0  0  0
   22.2156  -54.5184    0.3200 C   0  0  2  0  0  0
   23.5651  -54.5523   -0.3484 C   0  0  1  0  0  0
   24.0892  -53.2770    0.3149 C   0  0  2  0  0  0
   22.9990  -52.2732    0.0968 N   0  0
   24.3573  -55.7051   -0.0565 O   0  0
   20.4863  -52.5969    0.3309 C   0  0
   25.4706  -52.8011   -0.1678 C   0  0
   21.3148  -55.5542   -0.0773 O   0  0
   19.4266  -53.4905   -0.0150 O   0  0
   26.4635  -53.8061    0.0815 N   0  0
   27.7496  -53.5038   -0.0849 C   0  0
   28.8097  -54.5378    0.1660 C   0  0
   28.0721  -52.3678   -0.4443 O   0  0
   30.1947  -53.9121   -0.0952 C   0  0
   31.2947  -54.9622    0.1436 C   0  0
   32.6732  -54.3281   -0.1230 C   0  0
   33.7765  -55.3779    0.1054 C   0  0
   21.7331  -53.2134   -1.2957 H   0  0
   22.3233  -54.4966    1.4044 H   0  0
   23.4660  -54.4146   -1.4251 H   0  0
   24.1584  -53.4645    1.3864 H   0  0
   23.2280  -51.6256   -0.7237 H   0  0
   24.5339  -55.7565    0.9773 H   0  0
   20.5457  -52.5079    1.4156 H   0  0
   20.2906  -51.6169   -0.1043 H   0  0
   25.4263  -52.5985   -1.2379 H   0  0
   25.7418  -51.8893    0.3642 H   0  0
   20.3526  -55.3395    0.2841 H   0  0
   19.3680  -53.5769   -1.0598 H   0  0
   26.1742  -54.7866    0.3974 H   0  0
   28.7515  -54.8770    1.2002 H   0  0
   28.6595  -55.3847   -0.5037 H   0  0
   30.2454  -53.5633   -1.1267 H   0  0
   30.3449  -53.0707    0.5812 H   0  0
   31.2478  -55.3098    1.1756 H   0  0
   31.1455  -55.8051   -0.5313 H   0  0
   32.7167  -53.9743   -1.1531 H   0  0
   32.8243  -53.4893    0.5565 H   0  0
   34.7512  -54.9283   -0.0834 H   0  0
   33.6263  -56.2172   -0.5737 H   0  0
   33.7338  -55.7323    1.1353 H   0  0
  1  2  1  0
  2  3  1  0
  3  4  1  0
  4  5  1  0
  5  1  1  0
  3  6  1  0
  1  7  1  0
  4  8  1  0
  2  9  1  0
  7 10  1  0
  8 11  1  0
 11 12  1  0
 12 13  1  0
 12 14  2  0
 15 13  1  0
 15 16  1  0
 16 17  1  0
 17 18  1  0
  1 19  1  0
  2 20  1  0
  3 21  1  0
  4 22  1  0
  5 23  1  0
  6 24  1  0
  7 25  1  0
  7 26  1  0
  8 27  1  0
  8 28  1  0
  9 29  1  0
 10 30  1  0
 11 31  1  0
 13 32  1  0
 13 33  1  0
 15 34  1  0
 15 35  1  0
 16 36  1  0
 16 37  1  0
 17 38  1  0
 17 39  1  0
 18 40  1  0
 18 41  1  0
 18 42  1  0
M  END
> <Name>
2e Pingitore et al., 2022

> <Clean Energy>
29.2617301940918

> <Reference>
Pingitore et al., 2022

> <Forcefield>
MMFF

> <ForcefieldBase>
MMFF

> <ForcefieldFFML>
<?xml version="1.0" encoding="UTF-8"?>
<!DOCTYPE ffml SYSTEM "Ffml.dtd">
<ffml version="1.0">
<forcefield name="2e Pingitore et al., 2022-MMFF" derivedFrom="MMFF" base="MMFF">
<atomTypes>
<atomType
 name="C100"
 element="C"
 mass="12.011"
 annotation=""/>
<atomType
 name="N101"
 element="N"
 mass="14.007"
 annotation=""/>
<atomType
 name="O102"
 element="O"
 mass="16"
 annotation=""/>
<atomType
 name="H103"
 element="H"
 mass="1.008"
 annotation=""/>
</atomTypes>
<parameters>
</parameters>
</forcefield>
</ffml>

$$$$
2f Pingitore et al., 2022
  SciTegic07212313593D

 45 45  0  0  0  0            999 V2000
   21.5204  -65.1994   -0.2108 C   0  0  2  0  0  0
   21.9117  -66.5794    0.3190 C   0  0  2  0  0  0
   23.2606  -66.6189   -0.3518 C   0  0  1  0  0  0
   23.7922  -65.3458    0.3114 C   0  0  2  0  0  0
   22.7051  -64.3374    0.0962 N   0  0
   24.0477  -67.7755   -0.0623 O   0  0
   20.1905  -64.6502    0.3341 C   0  0
   25.1767  -64.8739   -0.1731 C   0  0
   21.0053  -67.6108   -0.0776 O   0  0
   19.1260  -65.5386   -0.0109 O   0  0
   26.1698  -65.8807    0.0736 N   0  0
   27.4573  -65.5840   -0.0873 C   0  0
   28.5139  -66.6227    0.1629 C   0  0
   27.7863  -64.4447   -0.4417 O   0  0
   29.9095  -66.0113   -0.0839 C   0  0
   30.9919  -67.0803    0.1619 C   0  0
   32.3877  -66.4749   -0.0844 C   0  0
   33.4626  -67.5531    0.1555 C   0  0
   34.8604  -66.9541   -0.0890 C   0  0
   21.4323  -65.2712   -1.2948 H   0  0
   22.0211  -66.5588    1.4033 H   0  0
   23.1602  -66.4800   -1.4282 H   0  0
   23.8623  -65.5344    1.3826 H   0  0
   22.9351  -63.6900   -0.7241 H   0  0
   24.2256  -67.8287    0.9712 H   0  0
   20.2520  -64.5624    1.4188 H   0  0
   19.9986  -63.6690   -0.1001 H   0  0
   25.1313  -64.6706   -1.2430 H   0  0
   25.4507  -63.9630    0.3591 H   0  0
   20.0447  -67.3920    0.2856 H   0  0
   19.0654  -65.6240   -1.0557 H   0  0
   25.8774  -66.8620    0.3843 H   0  0
   28.4463  -66.9675    1.1947 H   0  0
   28.3621  -67.4645   -0.5127 H   0  0
   29.9745  -65.6592   -1.1134 H   0  0
   30.0647  -65.1745    0.5972 H   0  0
   30.9264  -67.4315    1.1917 H   0  0
   30.8351  -67.9172   -0.5186 H   0  0
   32.4532  -66.1187   -1.1125 H   0  0
   32.5488  -65.6422    0.6002 H   0  0
   33.3956  -67.9091    1.1836 H   0  0
   33.3001  -68.3855   -0.5291 H   0  0
   35.6186  -67.7184    0.0813 H   0  0
   35.0243  -66.1216    0.5953 H   0  0
   34.9288  -66.5979   -1.1169 H   0  0
  1  2  1  0
  2  3  1  0
  3  4  1  0
  4  5  1  0
  5  1  1  0
  3  6  1  0
  1  7  1  0
  4  8  1  0
  2  9  1  0
  7 10  1  0
  8 11  1  0
 11 12  1  0
 12 13  1  0
 12 14  2  0
 15 13  1  0
 15 16  1  0
 16 17  1  0
 17 18  1  0
 18 19  1  0
  1 20  1  0
  2 21  1  0
  3 22  1  0
  4 23  1  0
  5 24  1  0
  6 25  1  0
  7 26  1  0
  7 27  1  0
  8 28  1  0
  8 29  1  0
  9 30  1  0
 10 31  1  0
 11 32  1  0
 13 33  1  0
 13 34  1  0
 15 35  1  0
 15 36  1  0
 16 37  1  0
 16 38  1  0
 17 39  1  0
 17 40  1  0
 18 41  1  0
 18 42  1  0
 19 43  1  0
 19 44  1  0
 19 45  1  0
M  END
> <Name>
2f Pingitore et al., 2022

> <Clean Energy>
29.1430187225342

> <Reference>
Pingitore et al., 2022

> <Forcefield>
MMFF

> <ForcefieldBase>
MMFF

> <ForcefieldFFML>
<?xml version="1.0" encoding="UTF-8"?>
<!DOCTYPE ffml SYSTEM "Ffml.dtd">
<ffml version="1.0">
<forcefield name="2f Pingitore et al., 2022-MMFF" derivedFrom="MMFF" base="MMFF">
<atomTypes>
<atomType
 name="C100"
 element="C"
 mass="12.011"
 annotation=""/>
<atomType
 name="N101"
 element="N"
 mass="14.007"
 annotation=""/>
<atomType
 name="O102"
 element="O"
 mass="16"
 annotation=""/>
<atomType
 name="H103"
 element="H"
 mass="1.008"
 annotation=""/>
</atomTypes>
<parameters>
</parameters>
</forcefield>
</ffml>

$$$$
2g Pingitore et al., 2022
  SciTegic07212313593D

 48 48  0  0  0  0            999 V2000
   11.7081  -45.7271   -0.2094 C   0  0  2  0  0  0
   12.0879  -47.1106    0.3189 C   0  0  2  0  0  0
   13.4376  -47.1606   -0.3519 C   0  0  1  0  0  0
   13.9801  -45.8922    0.3129 C   0  0  2  0  0  0
   12.9001  -44.8752    0.0988 N   0  0
   14.2149  -48.3239   -0.0638 O   0  0
   10.3822  -45.1673    0.3357 C   0  0
   15.3700  -45.4278   -0.1702 C   0  0
   11.1729  -48.1339   -0.0791 O   0  0
    9.3101  -46.0463   -0.0105 O   0  0
   16.3647  -46.4365    0.0731 N   0  0
   17.6524  -46.1388   -0.0828 C   0  0
   18.7141  -47.1757    0.1610 C   0  0
   17.9804  -44.9942   -0.4306 O   0  0
   20.1117  -46.5608   -0.0800 C   0  0
   21.1971  -47.6331    0.1501 C   0  0
   22.5954  -47.0279   -0.0941 C   0  0
   23.6680  -48.1160    0.1179 C   0  0
   25.0688  -47.5233   -0.1295 C   0  0
   26.1337  -48.6187    0.0728 C   0  0
   11.6197  -45.7970   -1.2936 H   0  0
   12.1972  -47.0921    1.4032 H   0  0
   13.3387  -47.0197   -1.4282 H   0  0
   14.0482  -46.0827    1.3839 H   0  0
   13.1352  -44.2286   -0.7206 H   0  0
   14.3919  -48.3801    0.9696 H   0  0
   10.4441  -45.0812    1.4205 H   0  0
   10.1988  -44.1840   -0.0975 H   0  0
   15.3251  -45.2226   -1.2397 H   0  0
   15.6470  -44.5185    0.3634 H   0  0
   10.2142  -47.9075    0.2843 H   0  0
    9.2489  -46.1300   -1.0554 H   0  0
   16.0719  -47.4196    0.3774 H   0  0
   18.6463  -47.5276    1.1904 H   0  0
   18.5650  -48.0132   -0.5205 H   0  0
   20.1750  -46.1952   -1.1049 H   0  0
   20.2676  -45.7330    0.6119 H   0  0
   21.1348  -47.9955    1.1762 H   0  0
   21.0372  -48.4623   -0.5390 H   0  0
   22.6556  -46.6520   -1.1155 H   0  0
   22.7646  -46.2093    0.6055 H   0  0
   23.6082  -48.4885    1.1405 H   0  0
   23.4940  -48.9361   -0.5788 H   0  0
   25.1275  -47.1437   -1.1495 H   0  0
   25.2477  -46.7090    0.5727 H   0  0
   27.1245  -48.1997   -0.1021 H   0  0
   25.9553  -49.4335   -0.6290 H   0  0
   26.0754  -48.9989    1.0927 H   0  0
  1  2  1  0
  2  3  1  0
  3  4  1  0
  4  5  1  0
  5  1  1  0
  3  6  1  0
  1  7  1  0
  4  8  1  0
  2  9  1  0
  7 10  1  0
  8 11  1  0
 11 12  1  0
 12 13  1  0
 12 14  2  0
 15 13  1  0
 15 16  1  0
 16 17  1  0
 17 18  1  0
 18 19  1  0
 19 20  1  0
  1 21  1  0
  2 22  1  0
  3 23  1  0
  4 24  1  0
  5 25  1  0
  6 26  1  0
  7 27  1  0
  7 28  1  0
  8 29  1  0
  8 30  1  0
  9 31  1  0
 10 32  1  0
 11 33  1  0
 13 34  1  0
 13 35  1  0
 15 36  1  0
 15 37  1  0
 16 38  1  0
 16 39  1  0
 17 40  1  0
 17 41  1  0
 18 42  1  0
 18 43  1  0
 19 44  1  0
 19 45  1  0
 20 46  1  0
 20 47  1  0
 20 48  1  0
M  END
> <Name>
2g Pingitore et al., 2022

> <Clean Energy>
29.08176612854

> <Reference>
Pingitore et al., 2022

> <Forcefield>
MMFF

> <ForcefieldBase>
MMFF

> <ForcefieldFFML>
<?xml version="1.0" encoding="UTF-8"?>
<!DOCTYPE ffml SYSTEM "Ffml.dtd">
<ffml version="1.0">
<forcefield name="2g Pingitore et al., 2022-MMFF" derivedFrom="MMFF" base="MMFF">
<atomTypes>
<atomType
 name="C100"
 element="C"
 mass="12.011"
 annotation=""/>
<atomType
 name="N101"
 element="N"
 mass="14.007"
 annotation=""/>
<atomType
 name="O102"
 element="O"
 mass="16"
 annotation=""/>
<atomType
 name="H103"
 element="H"
 mass="1.008"
 annotation=""/>
</atomTypes>
<parameters>
</parameters>
</forcefield>
</ffml>

$$$$
2h Pingitore et al., 2022
  SciTegic07212313593D

 51 51  0  0  0  0            999 V2000
   12.2473  -57.8017   -0.2079 C   0  0  2  0  0  0
   12.6199  -59.1879    0.3187 C   0  0  2  0  0  0
   13.9694  -59.2443   -0.3540 C   0  0  1  0  0  0
   14.5212  -57.9803    0.3122 C   0  0  2  0  0  0
   13.4449  -56.9567    0.1007 N   0  0
   14.7402  -60.4129   -0.0682 O   0  0
   10.9244  -57.2349    0.3385 C   0  0
   15.9156  -57.5177   -0.1724 C   0  0
   11.6983  -60.2053   -0.0801 O   0  0
    9.8466  -58.1071   -0.0083 O   0  0
   16.9139  -58.5290    0.0664 N   0  0
   18.2062  -58.2179   -0.0899 C   0  0
   19.2715  -59.2607    0.1496 C   0  0
   18.5263  -57.0786   -0.4274 O   0  0
   20.6744  -58.6418   -0.0825 C   0  0
   21.7586  -59.7210    0.1438 C   0  0
   23.1680  -59.1259   -0.0823 C   0  0
   24.2258  -60.2317    0.1324 C   0  0
   25.6441  -59.6650   -0.0865 C   0  0
   26.6802  -60.7893    0.1248 C   0  0
   28.1021  -60.2353   -0.0878 C   0  0
   12.1580  -57.8700   -1.2921 H   0  0
   12.7301  -59.1714    1.4029 H   0  0
   13.8703  -59.1013   -1.4300 H   0  0
   14.5895  -58.1729    1.3829 H   0  0
   13.6825  -56.3100   -0.7180 H   0  0
   14.9178  -60.4716    0.9650 H   0  0
   10.9872  -57.1505    1.4234 H   0  0
   10.7465  -56.2500   -0.0933 H   0  0
   15.8692  -57.3100   -1.2414 H   0  0
   16.1945  -56.6101    0.3628 H   0  0
   10.7411  -59.9736    0.2842 H   0  0
    9.7844  -58.1892   -1.0532 H   0  0
   16.6259  -59.5154    0.3647 H   0  0
   19.2006  -59.6212    1.1758 H   0  0
   19.1247  -60.0926   -0.5393 H   0  0
   20.7418  -58.2681   -1.1042 H   0  0
   20.8288  -57.8199    0.6166 H   0  0
   21.6862  -60.0938    1.1655 H   0  0
   21.5993  -60.5420   -0.5552 H   0  0
   23.2429  -58.7425   -1.0999 H   0  0
   23.3394  -58.3150    0.6256 H   0  0
   24.1446  -60.6142    1.1499 H   0  0
   24.0487  -61.0411   -0.5758 H   0  0
   25.7288  -59.2781   -1.1020 H   0  0
   25.8289  -58.8610    0.6258 H   0  0
   26.5911  -61.1772    1.1396 H   0  0
   26.4940  -61.5916   -0.5891 H   0  0
   28.8296  -61.0329    0.0626 H   0  0
   28.2905  -59.4331    0.6257 H   0  0
   28.1935  -59.8474   -1.1024 H   0  0
  1  2  1  0
  2  3  1  0
  3  4  1  0
  4  5  1  0
  5  1  1  0
  3  6  1  0
  1  7  1  0
  4  8  1  0
  2  9  1  0
  7 10  1  0
  8 11  1  0
 11 12  1  0
 12 13  1  0
 12 14  2  0
 15 13  1  0
 15 16  1  0
 16 17  1  0
 17 18  1  0
 18 19  1  0
 19 20  1  0
 20 21  1  0
  1 22  1  0
  2 23  1  0
  3 24  1  0
  4 25  1  0
  5 26  1  0
  6 27  1  0
  7 28  1  0
  7 29  1  0
  8 30  1  0
  8 31  1  0
  9 32  1  0
 10 33  1  0
 11 34  1  0
 13 35  1  0
 13 36  1  0
 15 37  1  0
 15 38  1  0
 16 39  1  0
 16 40  1  0
 17 41  1  0
 17 42  1  0
 18 43  1  0
 18 44  1  0
 19 45  1  0
 19 46  1  0
 20 47  1  0
 20 48  1  0
 21 49  1  0
 21 50  1  0
 21 51  1  0
M  END
> <Name>
2h Pingitore et al., 2022

> <Clean Energy>
29.0737266540527

> <Reference>
Pingitore et al., 2022

> <Forcefield>
MMFF

> <ForcefieldBase>
MMFF

> <ForcefieldFFML>
<?xml version="1.0" encoding="UTF-8"?>
<!DOCTYPE ffml SYSTEM "Ffml.dtd">
<ffml version="1.0">
<forcefield name="2h Pingitore et al., 2022-MMFF" derivedFrom="MMFF" base="MMFF">
<atomTypes>
<atomType
 name="C100"
 element="C"
 mass="12.011"
 annotation=""/>
<atomType
 name="N101"
 element="N"
 mass="14.007"
 annotation=""/>
<atomType
 name="O102"
 element="O"
 mass="16"
 annotation=""/>
<atomType
 name="H103"
 element="H"
 mass="1.008"
 annotation=""/>
</atomTypes>
<parameters>
</parameters>
</forcefield>
</ffml>

$$$$
3a Pingitore et al., 2022
  SciTegic07212313593D

 47 47  0  0  0  0            999 V2000
   17.2281  -15.9471   -0.3356 C   0  0  2  0  0  0
   17.6880  -17.2661    0.3051 C   0  0  2  0  0  0
   19.0268  -17.4091   -0.3805 C   0  0  1  0  0  0
   19.5705  -16.0555    0.1306 C   0  0  2  0  0  0
   18.4622  -15.1117   -0.3137 N   0  0
   19.7935  -18.5272    0.0675 O   0  0
   15.9735  -15.3526    0.3332 C   0  0
   20.9970  -15.7299   -0.3744 C   0  0
   16.7568  -18.3324    0.1049 O   0  0
   14.8909  -16.2802    0.2286 O   0  0
   21.9432  -16.6896    0.0879 N   0  0
   23.2354  -16.4057    0.0066 C   0  0
   24.2633  -17.3848    0.4815 C   0  0
   23.5947  -15.3113   -0.4628 O   0  0
   18.3422  -13.6855    0.1840 C   0  0
   19.5491  -12.8028   -0.2224 C   0  0
   19.4334  -11.3681    0.3003 C   0  0
   20.7072  -10.6204   -0.1439 C   0  0
   20.6821   -9.1665    0.3483 C   0  0
   21.9178   -8.4937   -0.0823 N   0  0
   16.9836  -16.1516   -1.3780 H   0  0
   17.8422  -17.1155    1.3736 H   0  0
   18.9194  -17.4100   -1.4652 H   0  0
   19.5873  -16.0795    1.2202 H   0  0
   19.9815  -18.4336    1.0963 H   0  0
   16.1819  -15.1551    1.3847 H   0  0
   15.7032  -14.4217   -0.1652 H   0  0
   20.9959  -15.7296   -1.4644 H   0  0
   21.2855  -14.7438   -0.0106 H   0  0
   15.8319  -18.0746    0.5300 H   0  0
   14.6895  -16.4710   -0.7841 H   0  0
   21.6161  -17.6239    0.4939 H   0  0
   25.2593  -16.9686    0.3305 H   0  0
   24.1689  -18.3133   -0.0817 H   0  0
   24.1113  -17.5864    1.5419 H   0  0
   17.4350  -13.2471   -0.2318 H   0  0
   18.2733  -13.7012    1.2717 H   0  0
   20.4585  -13.2485    0.1805 H   0  0
   19.6093  -12.7737   -1.3104 H   0  0
   18.5510  -10.8866   -0.1211 H   0  0
   19.3617  -11.3711    1.3880 H   0  0
   21.5805  -11.1236    0.2711 H   0  0
   20.7656  -10.6287   -1.2323 H   0  0
   19.8194   -8.6522   -0.0754 H   0  0
   20.6173   -9.1502    1.4362 H   0  0
   21.9808   -8.5118   -1.1504 H   0  0
   22.7638   -9.0005    0.3331 H   0  0
  1  2  1  0
  2  3  1  0
  3  4  1  0
  4  5  1  0
  5  1  1  0
  3  6  1  0
  1  7  1  0
  4  8  1  0
  2  9  1  0
  7 10  1  0
  8 11  1  0
 11 12  1  0
 12 13  1  0
 12 14  2  0
  5 15  1  0
 15 16  1  0
 16 17  1  0
 17 18  1  0
 18 19  1  0
 19 20  1  0
  1 21  1  0
  2 22  1  0
  3 23  1  0
  4 24  1  0
  6 25  1  0
  7 26  1  0
  7 27  1  0
  8 28  1  0
  8 29  1  0
  9 30  1  0
 10 31  1  0
 11 32  1  0
 13 33  1  0
 13 34  1  0
 13 35  1  0
 15 36  1  0
 15 37  1  0
 16 38  1  0
 16 39  1  0
 17 40  1  0
 17 41  1  0
 18 42  1  0
 18 43  1  0
 19 44  1  0
 19 45  1  0
 20 46  1  0
 20 47  1  0
M  END
> <Name>
3a Pingitore et al., 2022

> <Clean Energy>
51.7783088684082

> <Reference>
Pingitore et al., 2022

> <Forcefield>
MMFF

> <ForcefieldBase>
MMFF

> <ForcefieldFFML>
<?xml version="1.0" encoding="UTF-8"?>
<!DOCTYPE ffml SYSTEM "Ffml.dtd">
<ffml version="1.0">
<forcefield name="3a Pingitore et al., 2022-MMFF" derivedFrom="MMFF" base="MMFF">
<atomTypes>
<atomType
 name="C100"
 element="C"
 mass="12.011"
 annotation=""/>
<atomType
 name="N101"
 element="N"
 mass="14.007"
 annotation=""/>
<atomType
 name="O102"
 element="O"
 mass="16"
 annotation=""/>
<atomType
 name="H103"
 element="H"
 mass="1.008"
 annotation=""/>
</atomTypes>
<parameters>
</parameters>
</forcefield>
</ffml>

$$$$
3b Pingitore et al., 2022
  SciTegic07212313593D

 50 50  0  0  0  0            999 V2000
   14.4241  -19.4520   -0.3310 C   0  0  2  0  0  0
   14.8775  -20.7782    0.3021 C   0  0  2  0  0  0
   16.2169  -20.9216   -0.3790 C   0  0  1  0  0  0
   16.7657  -19.5736    0.1439 C   0  0  2  0  0  0
   15.6621  -18.6240   -0.2989 N   0  0
   16.9778  -22.0463    0.0647 O   0  0
   13.1727  -18.8591    0.3448 C   0  0
   18.1943  -19.2513   -0.3590 C   0  0
   13.9421  -21.8389    0.0925 O   0  0
   12.0859  -19.7806    0.2306 O   0  0
   19.1347  -20.2197    0.0992 N   0  0
   20.4312  -19.9389    0.0078 C   0  0
   21.4529  -20.9298    0.4794 C   0  0
   20.7926  -18.8542   -0.4612 O   0  0
   15.5431  -17.1917    0.1829 C   0  0
   16.7588  -16.3184   -0.2149 C   0  0
   16.6352  -14.8723    0.2746 C   0  0
   17.9163  -14.1396   -0.1706 C   0  0
   17.8861  -12.6673    0.2614 C   0  0
   19.1903  -11.9915   -0.2061 C   0  0
   19.1833  -10.5761    0.1840 N   0  0
   14.1793  -19.6467   -1.3752 H   0  0
   15.0290  -20.6354    1.3720 H   0  0
   16.1137  -20.9147   -1.4641 H   0  0
   16.7803  -19.6043    1.2334 H   0  0
   17.1623  -21.9602    1.0948 H   0  0
   13.3824  -18.6740    1.3983 H   0  0
   12.9064  -17.9216   -0.1433 H   0  0
   18.1940  -19.2446   -1.4490 H   0  0
   18.4877  -18.2688    0.0108 H   0  0
   13.0176  -21.5800    0.5175 H   0  0
   11.8832  -19.9595   -0.7840 H   0  0
   18.8046  -21.1520    0.5076 H   0  0
   22.4524  -20.5237    0.3240 H   0  0
   21.3467  -21.8575   -0.0830 H   0  0
   21.3034  -21.1295    1.5405 H   0  0
   14.6438  -16.7531   -0.2495 H   0  0
   15.4593  -17.1964    1.2696 H   0  0
   17.6585  -16.7566    0.2170 H   0  0
   16.8425  -16.3124   -1.3016 H   0  0
   15.7593  -14.3996   -0.1698 H   0  0
   16.5489  -14.8502    1.3609 H   0  0
   18.7805  -14.6260    0.2819 H   0  0
   17.9971  -14.1908   -1.2564 H   0  0
   17.0305  -12.1685   -0.1939 H   0  0
   17.8087  -12.6045    1.3468 H   0  0
   20.0422  -12.4901    0.2563 H   0  0
   19.2689  -12.0676   -1.2906 H   0  0
   19.1069  -10.4994    1.2485 H   0  0
   18.3479  -10.0847   -0.2695 H   0  0
  1  2  1  0
  2  3  1  0
  3  4  1  0
  4  5  1  0
  5  1  1  0
  3  6  1  0
  1  7  1  0
  4  8  1  0
  2  9  1  0
  7 10  1  0
  8 11  1  0
 11 12  1  0
 12 13  1  0
 12 14  2  0
  5 15  1  0
 15 16  1  0
 16 17  1  0
 17 18  1  0
 18 19  1  0
 19 20  1  0
 20 21  1  0
  1 22  1  0
  2 23  1  0
  3 24  1  0
  4 25  1  0
  6 26  1  0
  7 27  1  0
  7 28  1  0
  8 29  1  0
  8 30  1  0
  9 31  1  0
 10 32  1  0
 11 33  1  0
 13 34  1  0
 13 35  1  0
 13 36  1  0
 15 37  1  0
 15 38  1  0
 16 39  1  0
 16 40  1  0
 17 41  1  0
 17 42  1  0
 18 43  1  0
 18 44  1  0
 19 45  1  0
 19 46  1  0
 20 47  1  0
 20 48  1  0
 21 49  1  0
 21 50  1  0
M  END
> <Name>
3b Pingitore et al., 2022

> <Clean Energy>
51.7383460998535

> <IC50>
155

> <Ki>
80nM

> <Reference>
Pingitore et al., 2022

> <Forcefield>
MMFF

> <ForcefieldBase>
MMFF

> <ForcefieldFFML>
<?xml version="1.0" encoding="UTF-8"?>
<!DOCTYPE ffml SYSTEM "Ffml.dtd">
<ffml version="1.0">
<forcefield name="3b Pingitore et al., 2022-MMFF" derivedFrom="MMFF" base="MMFF">
<atomTypes>
<atomType
 name="C100"
 element="C"
 mass="12.011"
 annotation=""/>
<atomType
 name="N101"
 element="N"
 mass="14.007"
 annotation=""/>
<atomType
 name="O102"
 element="O"
 mass="16"
 annotation=""/>
<atomType
 name="H103"
 element="H"
 mass="1.008"
 annotation=""/>
</atomTypes>
<parameters>
</parameters>
</forcefield>
</ffml>

$$$$
3c Pingitore et al., 2022
  SciTegic07212313593D

 53 53  0  0  0  0            999 V2000
   19.2475  -29.1072   -0.3344 C   0  0  2  0  0  0
   19.6931  -30.4374    0.2974 C   0  0  2  0  0  0
   21.0325  -30.5875   -0.3796 C   0  0  1  0  0  0
   21.5877  -29.2421    0.1464 C   0  0  2  0  0  0
   20.4911  -28.2872   -0.3000 N   0  0
   21.7859  -31.7168    0.0653 O   0  0
   18.0003  -28.5104    0.3459 C   0  0
   23.0186  -28.9284   -0.3541 C   0  0
   18.7521  -31.4927    0.0857 O   0  0
   16.9086  -29.4260    0.2301 O   0  0
   23.9520  -29.9032    0.1047 N   0  0
   25.2503  -29.6334    0.0103 C   0  0
   26.2649  -30.6314    0.4822 C   0  0
   25.6198  -28.5526   -0.4622 O   0  0
   20.3775  -26.8498    0.1691 C   0  0
   21.6026  -25.9835   -0.2182 C   0  0
   21.4739  -24.5341    0.2632 C   0  0
   22.7640  -23.8010   -0.1554 C   0  0
   22.7214  -22.3289    0.2784 C   0  0
   24.0376  -21.6511   -0.1488 C   0  0
   24.0192  -20.1702    0.2662 C   0  0
   25.2817  -19.5342   -0.1380 N   0  0
   19.0007  -29.2982   -1.3788 H   0  0
   19.8431  -30.2965    1.3678 H   0  0
   20.9324  -30.5791   -1.4650 H   0  0
   21.5995  -29.2730    1.2359 H   0  0
   21.9681  -31.6326    1.0960 H   0  0
   18.2129  -28.3304    1.3997 H   0  0
   17.7380  -27.5697   -0.1382 H   0  0
   23.0200  -28.9208   -1.4441 H   0  0
   23.3177  -27.9481    0.0170 H   0  0
   17.8286  -31.2292    0.5104 H   0  0
   16.7032  -29.5999   -0.7849 H   0  0
   23.6150  -30.8317    0.5161 H   0  0
   27.2673  -30.2338    0.3239 H   0  0
   26.1500  -31.5595   -0.0779 H   0  0
   26.1159  -30.8274    1.5440 H   0  0
   19.4863  -26.4089   -0.2777 H   0  0
   20.2800  -26.8463    1.2547 H   0  0
   22.4953  -26.4217    0.2281 H   0  0
   21.7011  -25.9834   -1.3038 H   0  0
   20.6081  -24.0616   -0.2009 H   0  0
   21.3646  -24.5088    1.3474 H   0  0
   23.6192  -24.2870    0.3144 H   0  0
   22.8673  -23.8510   -1.2393 H   0  0
   21.8792  -21.8295   -0.2007 H   0  0
   22.6121  -22.2684    1.3612 H   0  0
   24.8761  -22.1520    0.3351 H   0  0
   24.1466  -21.7222   -1.2310 H   0  0
   23.1855  -19.6661   -0.2225 H   0  0
   23.9052  -20.0971    1.3477 H   0  0
   25.3941  -19.6062   -1.1996 H   0  0
   26.1004  -20.0292    0.3413 H   0  0
  1  2  1  0
  2  3  1  0
  3  4  1  0
  4  5  1  0
  5  1  1  0
  3  6  1  0
  1  7  1  0
  4  8  1  0
  2  9  1  0
  7 10  1  0
  8 11  1  0
 11 12  1  0
 12 13  1  0
 12 14  2  0
  5 15  1  0
 15 16  1  0
 16 17  1  0
 17 18  1  0
 18 19  1  0
 19 20  1  0
 20 21  1  0
 21 22  1  0
  1 23  1  0
  2 24  1  0
  3 25  1  0
  4 26  1  0
  6 27  1  0
  7 28  1  0
  7 29  1  0
  8 30  1  0
  8 31  1  0
  9 32  1  0
 10 33  1  0
 11 34  1  0
 13 35  1  0
 13 36  1  0
 13 37  1  0
 15 38  1  0
 15 39  1  0
 16 40  1  0
 16 41  1  0
 17 42  1  0
 17 43  1  0
 18 44  1  0
 18 45  1  0
 19 46  1  0
 19 47  1  0
 20 48  1  0
 20 49  1  0
 21 50  1  0
 21 51  1  0
 22 52  1  0
 22 53  1  0
M  END
> <Name>
3c Pingitore et al., 2022

> <Clean Energy>
51.53759765625

> <Reference>
Pingitore et al., 2022

> <Forcefield>
MMFF

> <ForcefieldBase>
MMFF

> <ForcefieldFFML>
<?xml version="1.0" encoding="UTF-8"?>
<!DOCTYPE ffml SYSTEM "Ffml.dtd">
<ffml version="1.0">
<forcefield name="3c Pingitore et al., 2022-MMFF" derivedFrom="MMFF" base="MMFF">
<atomTypes>
<atomType
 name="C100"
 element="C"
 mass="12.011"
 annotation=""/>
<atomType
 name="N101"
 element="N"
 mass="14.007"
 annotation=""/>
<atomType
 name="O102"
 element="O"
 mass="16"
 annotation=""/>
<atomType
 name="H103"
 element="H"
 mass="1.008"
 annotation=""/>
</atomTypes>
<parameters>
</parameters>
</forcefield>
</ffml>

$$$$
3d Pingitore et al., 2022
  SciTegic07212313593D

 56 56  0  0  0  0            999 V2000
   19.4037  -28.6817   -0.3329 C   0  0  2  0  0  0
   19.8438  -30.0163    0.2945 C   0  0  2  0  0  0
   21.1837  -30.1690   -0.3786 C   0  0  1  0  0  0
   21.7428  -28.8264    0.1532 C   0  0  2  0  0  0
   20.6511  -27.8668   -0.2924 N   0  0
   21.9318  -31.3022    0.0638 O   0  0
   18.1583  -28.0854    0.3507 C   0  0
   23.1752  -28.5190   -0.3447 C   0  0
   18.8997  -31.0678    0.0776 O   0  0
   17.0640  -28.9974    0.2293 O   0  0
   24.1031  -29.4993    0.1111 N   0  0
   25.4014  -29.2444    0.0126 C   0  0
   26.4103  -30.2477    0.4805 C   0  0
   25.7800  -28.1636   -0.4650 O   0  0
   20.5410  -26.4255    0.1692 C   0  0
   21.7758  -25.5661   -0.2060 C   0  0
   21.6440  -24.1106    0.2586 C   0  0
   22.9437  -23.3841   -0.1454 C   0  0
   22.8904  -21.9029    0.2576 C   0  0
   24.2126  -21.2292   -0.1586 C   0  0
   24.1725  -19.7358    0.2067 C   0  0
   25.4965  -19.0705   -0.2127 C   0  0
   25.4528  -17.6396    0.1199 N   0  0
   19.1570  -28.8669   -1.3783 H   0  0
   19.9917  -29.8798    1.3658 H   0  0
   21.0865  -30.1565   -1.4642 H   0  0
   21.7527  -28.8606    1.2426 H   0  0
   22.1115  -31.2227    1.0953 H   0  0
   18.3712  -27.9123    1.4056 H   0  0
   17.8987  -27.1411   -0.1278 H   0  0
   23.1774  -28.5078   -1.4346 H   0  0
   23.4791  -27.5415    0.0299 H   0  0
   17.9764  -30.8031    0.5019 H   0  0
   16.8584  -29.1648   -0.7867 H   0  0
   23.7593  -30.4241    0.5251 H   0  0
   27.4146  -29.8573    0.3168 H   0  0
   26.2863  -31.1758   -0.0775 H   0  0
   26.2650  -30.4412    1.5434 H   0  0
   19.6579  -25.9816   -0.2903 H   0  0
   20.4301  -26.4170    1.2536 H   0  0
   22.6594  -26.0025    0.2596 H   0  0
   21.8925  -25.5773   -1.2897 H   0  0
   20.7877  -23.6403   -0.2247 H   0  0
   21.5166  -24.0740    1.3405 H   0  0
   23.7882  -23.8595    0.3535 H   0  0
   23.0717  -23.4558   -1.2254 H   0  0
   22.0560  -21.4155   -0.2468 H   0  0
   22.7611  -21.8210    1.3368 H   0  0
   25.0421  -21.7072    0.3626 H   0  0
   24.3497  -21.3351   -1.2348 H   0  0
   23.3438  -19.2563   -0.3144 H   0  0
   24.0366  -19.6283    1.2828 H   0  0
   26.3238  -19.5417    0.3181 H   0  0
   25.6386  -19.1896   -1.2868 H   0  0
   25.3132  -17.5221    1.1743 H   0  0
   24.6407  -17.1766   -0.4008 H   0  0
  1  2  1  0
  2  3  1  0
  3  4  1  0
  4  5  1  0
  5  1  1  0
  3  6  1  0
  1  7  1  0
  4  8  1  0
  2  9  1  0
  7 10  1  0
  8 11  1  0
 11 12  1  0
 12 13  1  0
 12 14  2  0
  5 15  1  0
 15 16  1  0
 16 17  1  0
 17 18  1  0
 18 19  1  0
 19 20  1  0
 20 21  1  0
 21 22  1  0
 22 23  1  0
  1 24  1  0
  2 25  1  0
  3 26  1  0
  4 27  1  0
  6 28  1  0
  7 29  1  0
  7 30  1  0
  8 31  1  0
  8 32  1  0
  9 33  1  0
 10 34  1  0
 11 35  1  0
 13 36  1  0
 13 37  1  0
 13 38  1  0
 15 39  1  0
 15 40  1  0
 16 41  1  0
 16 42  1  0
 17 43  1  0
 17 44  1  0
 18 45  1  0
 18 46  1  0
 19 47  1  0
 19 48  1  0
 20 49  1  0
 20 50  1  0
 21 51  1  0
 21 52  1  0
 22 53  1  0
 22 54  1  0
 23 55  1  0
 23 56  1  0
M  END
> <Name>
3d Pingitore et al., 2022

> <Clean Energy>
51.4180030822754

> <Reference>
Pingitore et al., 2022

> <Forcefield>
MMFF

> <ForcefieldBase>
MMFF

> <ForcefieldFFML>
<?xml version="1.0" encoding="UTF-8"?>
<!DOCTYPE ffml SYSTEM "Ffml.dtd">
<ffml version="1.0">
<forcefield name="3d Pingitore et al., 2022-MMFF" derivedFrom="MMFF" base="MMFF">
<atomTypes>
<atomType
 name="C100"
 element="C"
 mass="12.011"
 annotation=""/>
<atomType
 name="N101"
 element="N"
 mass="14.007"
 annotation=""/>
<atomType
 name="O102"
 element="O"
 mass="16"
 annotation=""/>
<atomType
 name="H103"
 element="H"
 mass="1.008"
 annotation=""/>
</atomTypes>
<parameters>
</parameters>
</forcefield>
</ffml>

$$$$
4a Pingitore et al., 2022
  SciTegic07212313593D

 45 45  0  0  0  0            999 V2000
   18.8122  -30.2540   -0.3322 C   0  0  2  0  0  0
   19.2777  -31.5721    0.3076 C   0  0  2  0  0  0
   20.6160  -31.7099   -0.3792 C   0  0  1  0  0  0
   21.1559  -30.3545    0.1321 C   0  0  2  0  0  0
   20.0447  -29.4155   -0.3123 N   0  0
   21.3872  -32.8256    0.0684 O   0  0
   17.5574  -29.6647    0.3411 C   0  0
   22.5798  -30.0218   -0.3750 C   0  0
   18.3496  -32.6414    0.1083 O   0  0
   16.4775  -30.5959    0.2373 O   0  0
   23.5314  -30.9765    0.0868 N   0  0
   24.8230  -30.6772    0.0052 C   0  0
   25.8578  -31.6513    0.4801 C   0  0
   25.1710  -29.5834   -0.4597 O   0  0
   19.9222  -27.9867    0.1757 C   0  0
   21.1224  -27.0978   -0.2431 C   0  0
   20.9937  -25.6632    0.2770 C   0  0
   22.2458  -24.8855   -0.1811 C   0  0
   22.1781  -23.4330    0.3169 C   0  0
   18.5658  -30.4586   -1.3741 H   0  0
   19.4326  -31.4213    1.3760 H   0  0
   20.5079  -31.7109   -1.4638 H   0  0
   21.1736  -30.3781    1.2217 H   0  0
   21.5757  -32.7313    1.0971 H   0  0
   17.7679  -29.4687    1.3924 H   0  0
   17.2828  -28.7337   -0.1548 H   0  0
   22.5772  -30.0223   -1.4650 H   0  0
   22.8637  -29.0339   -0.0123 H   0  0
   17.4246  -32.3868    0.5350 H   0  0
   16.2742  -30.7853   -0.7753 H   0  0
   23.2124  -31.9145    0.4908 H   0  0
   26.8512  -31.2282    0.3315 H   0  0
   25.7705  -32.5793   -0.0851 H   0  0
   25.7056  -31.8562    1.5398 H   0  0
   19.0102  -27.5558   -0.2374 H   0  0
   19.8599  -27.9956    1.2639 H   0  0
   22.0378  -27.5344    0.1563 H   0  0
   21.1763  -27.0723   -1.3315 H   0  0
   20.0971  -25.1985   -0.1331 H   0  0
   20.9363  -25.6666    1.3655 H   0  0
   23.1363  -25.3646    0.2257 H   0  0
   22.2948  -24.8910   -1.2700 H   0  0
   23.0664  -22.8939   -0.0121 H   0  0
   22.1306  -23.4236    1.4058 H   0  0
   21.2893  -22.9501   -0.0894 H   0  0
  1  2  1  0
  2  3  1  0
  3  4  1  0
  4  5  1  0
  5  1  1  0
  3  6  1  0
  1  7  1  0
  4  8  1  0
  2  9  1  0
  7 10  1  0
  8 11  1  0
 11 12  1  0
 12 13  1  0
 12 14  2  0
  5 15  1  0
 15 16  1  0
 16 17  1  0
 17 18  1  0
 18 19  1  0
  1 20  1  0
  2 21  1  0
  3 22  1  0
  4 23  1  0
  6 24  1  0
  7 25  1  0
  7 26  1  0
  8 27  1  0
  8 28  1  0
  9 29  1  0
 10 30  1  0
 11 31  1  0
 13 32  1  0
 13 33  1  0
 13 34  1  0
 15 35  1  0
 15 36  1  0
 16 37  1  0
 16 38  1  0
 17 39  1  0
 17 40  1  0
 18 41  1  0
 18 42  1  0
 19 43  1  0
 19 44  1  0
 19 45  1  0
M  END
> <Name>
4a Pingitore et al., 2022

> <Clean Energy>
51.7861824035645

> <Reference>
Pingitore et al., 2022

> <Forcefield>
MMFF

> <ForcefieldBase>
MMFF

> <ForcefieldFFML>
<?xml version="1.0" encoding="UTF-8"?>
<!DOCTYPE ffml SYSTEM "Ffml.dtd">
<ffml version="1.0">
<forcefield name="4a Pingitore et al., 2022-MMFF" derivedFrom="MMFF" base="MMFF">
<atomTypes>
<atomType
 name="C100"
 element="C"
 mass="12.011"
 annotation=""/>
<atomType
 name="N101"
 element="N"
 mass="14.007"
 annotation=""/>
<atomType
 name="O102"
 element="O"
 mass="16"
 annotation=""/>
<atomType
 name="H103"
 element="H"
 mass="1.008"
 annotation=""/>
</atomTypes>
<parameters>
</parameters>
</forcefield>
</ffml>

$$$$
4b Pingitore et al., 2022
  SciTegic07212313593D

 48 48  0  0  0  0            999 V2000
   18.9483  -29.9003   -0.3360 C   0  0  2  0  0  0
   19.4092  -31.2195    0.3041 C   0  0  2  0  0  0
   20.7483  -31.3607   -0.3809 C   0  0  1  0  0  0
   21.2908  -30.0071    0.1315 C   0  0  2  0  0  0
   20.1818  -29.0641   -0.3131 N   0  0
   21.5158  -32.4786    0.0669 O   0  0
   17.6933  -29.3074    0.3334 C   0  0
   22.7171  -29.6796   -0.3730 C   0  0
   18.4789  -32.2863    0.1027 O   0  0
   16.6114  -30.2358    0.2278 O   0  0
   23.6641  -30.6389    0.0892 N   0  0
   24.9567  -30.3516    0.0066 C   0  0
   25.9855  -31.3309    0.4815 C   0  0
   25.3136  -29.2589   -0.4622 O   0  0
   20.0599  -27.6376    0.1836 C   0  0
   21.2668  -26.7538   -0.2203 C   0  0
   21.1481  -25.3191    0.3014 C   0  0
   22.4225  -24.5707   -0.1387 C   0  0
   22.3945  -23.1167    0.3527 C   0  0
   23.6908  -22.4124   -0.0932 C   0  0
   18.7042  -30.1042   -1.3786 H   0  0
   19.5628  -31.0695    1.3728 H   0  0
   20.6416  -31.3610   -1.4657 H   0  0
   21.3070  -30.0318    1.2211 H   0  0
   21.7032  -32.3855    1.0958 H   0  0
   17.9015  -29.1109    1.3851 H   0  0
   17.4223  -28.3762   -0.1641 H   0  0
   22.7163  -29.6787   -1.4630 H   0  0
   23.0045  -28.6934   -0.0086 H   0  0
   17.5537  -32.0295    0.5277 H   0  0
   16.4102  -30.4257   -0.7851 H   0  0
   23.3386  -31.5737    0.4954 H   0  0
   26.9814  -30.9143    0.3305 H   0  0
   25.8914  -32.2594   -0.0816 H   0  0
   25.8337  -31.5326    1.5419 H   0  0
   19.1532  -27.2001   -0.2344 H   0  0
   19.9886  -27.6529    1.2711 H   0  0
   22.1758  -27.1983    0.1851 H   0  0
   21.3297  -26.7253   -1.3082 H   0  0
   20.2667  -24.8385   -0.1233 H   0  0
   21.0726  -25.3217    1.3888 H   0  0
   23.2948  -25.0729    0.2796 H   0  0
   22.4847  -24.5794   -1.2269 H   0  0
   21.5336  -22.6028   -0.0750 H   0  0
   22.3249  -23.0998    1.4404 H   0  0
   23.6801  -21.3784    0.2514 H   0  0
   23.7597  -22.4316   -1.1809 H   0  0
   24.5507  -22.9283    0.3341 H   0  0
  1  2  1  0
  2  3  1  0
  3  4  1  0
  4  5  1  0
  5  1  1  0
  3  6  1  0
  1  7  1  0
  4  8  1  0
  2  9  1  0
  7 10  1  0
  8 11  1  0
 11 12  1  0
 12 13  1  0
 12 14  2  0
  5 15  1  0
 15 16  1  0
 16 17  1  0
 17 18  1  0
 18 19  1  0
 19 20  1  0
  1 21  1  0
  2 22  1  0
  3 23  1  0
  4 24  1  0
  6 25  1  0
  7 26  1  0
  7 27  1  0
  8 28  1  0
  8 29  1  0
  9 30  1  0
 10 31  1  0
 11 32  1  0
 13 33  1  0
 13 34  1  0
 13 35  1  0
 15 36  1  0
 15 37  1  0
 16 38  1  0
 16 39  1  0
 17 40  1  0
 17 41  1  0
 18 42  1  0
 18 43  1  0
 19 44  1  0
 19 45  1  0
 20 46  1  0
 20 47  1  0
 20 48  1  0
M  END
> <Name>
4b Pingitore et al., 2022

> <Clean Energy>
51.7107772827148

> <Reference>
Pingitore et al., 2022

> <Forcefield>
MMFF

> <ForcefieldBase>
MMFF

> <ForcefieldFFML>
<?xml version="1.0" encoding="UTF-8"?>
<!DOCTYPE ffml SYSTEM "Ffml.dtd">
<ffml version="1.0">
<forcefield name="4b Pingitore et al., 2022-MMFF" derivedFrom="MMFF" base="MMFF">
<atomTypes>
<atomType
 name="C100"
 element="C"
 mass="12.011"
 annotation=""/>
<atomType
 name="N101"
 element="N"
 mass="14.007"
 annotation=""/>
<atomType
 name="O102"
 element="O"
 mass="16"
 annotation=""/>
<atomType
 name="H103"
 element="H"
 mass="1.008"
 annotation=""/>
</atomTypes>
<parameters>
</parameters>
</forcefield>
</ffml>

$$$$
6a Pingitore et al., 2022
  SciTegic07212313593D

 64 66  0  0  0  0            999 V2000
   20.3438  -25.8409   -0.3249 C   0  0  2  0  0  0
   20.7648  -27.2058    0.2691 C   0  0  2  0  0  0
   22.1069  -27.3525   -0.3782 C   0  0  1  0  0  0
   22.6766  -26.0223    0.2023 C   0  0  2  0  0  0
   21.6107  -25.0380   -0.2415 N   0  0
   22.8337  -28.5084    0.0468 O   0  0
   19.1021  -25.2768    0.3886 C   0  0
   24.1113  -25.7313   -0.2796 C   0  0
   19.8140  -28.2442    0.0105 O   0  0
   18.0072  -26.1855    0.2261 O   0  0
   25.0063  -26.7532    0.1519 N   0  0
   26.3123  -26.5578    0.0141 C   0  0
   27.2835  -27.6112    0.4546 C   0  0
   26.7258  -25.5002   -0.4752 O   0  0
   21.5155  -23.5495    0.1476 C   0  0
   22.8073  -22.6947   -0.1507 C   0  0
   22.6337  -21.1707    0.1726 C   0  0
   23.9939  -20.4353   -0.0991 C   0  0
   23.9073  -18.8817    0.1089 C   0  0
   25.3278  -18.2611   -0.1192 C   0  0
   25.3444  -16.8022   -0.0220 N   0  0
   26.4931  -16.0273   -0.0587 C   0  0
   26.0228  -14.7932    0.0092 C   0  0
   24.6194  -14.8355    0.0847 N   0  0
   24.2589  -16.0068    0.0662 N   0  0
   26.8408  -13.5602    0.0056 C   0  0
   28.1714  -13.6378   -0.0505 C   0  0
   28.9821  -12.4118   -0.0535 C   0  0
   28.3898  -11.2196   -0.0018 C   0  0
   26.9279  -11.1322    0.0588 C   0  0
   26.1914  -12.2438    0.0631 C   0  0
   20.0985  -25.9859   -1.3770 H   0  0
   20.8967  -27.1017    1.3460 H   0  0
   22.0298  -27.3100   -1.4647 H   0  0
   22.6736  -26.0808    1.2908 H   0  0
   22.9934  -28.4605    1.0835 H   0  0
   19.3173  -25.1529    1.4499 H   0  0
   18.8408  -24.3114   -0.0449 H   0  0
   24.1200  -25.6850   -1.3686 H   0  0
   24.4380  -24.7746    0.1278 H   0  0
   18.8881  -27.9846    0.4324 H   0  0
   17.8000  -26.3053   -0.7963 H   0  0
   24.6329  -27.6605    0.5787 H   0  0
   28.3010  -27.2712    0.2622 H   0  0
   27.0978  -28.5317   -0.0989 H   0  0
   27.1589  -27.7977    1.5213 H   0  0
   20.6848  -23.1092   -0.4039 H   0  0
   21.3129  -23.4927    1.2171 H   0  0
   23.6266  -23.0847    0.4532 H   0  0
   23.0532  -22.7977   -1.2076 H   0  0
   21.8559  -20.7481   -0.4635 H   0  0
   22.3543  -21.0483    1.2191 H   0  0
   24.7458  -20.8348    0.5814 H   0  0
   24.2941  -20.6310   -1.1285 H   0  0
   23.2026  -18.4555   -0.6051 H   0  0
   23.5723  -18.6663    1.1236 H   0  0
   26.0064  -18.6654    0.6319 H   0  0
   25.6738  -18.5454   -1.1129 H   0  0
   27.5304  -16.3551   -0.1268 H   0  0
   28.6583  -14.6121   -0.0941 H   0  0
   30.0691  -12.4781   -0.0980 H   0  0
   28.9914  -10.3107   -0.0045 H   0  0
   26.4422  -10.1573    0.1003 H   0  0
   25.1046  -12.1755    0.1094 H   0  0
  1  2  1  0
  2  3  1  0
  3  4  1  0
  4  5  1  0
  5  1  1  0
  3  6  1  0
  1  7  1  0
  4  8  1  0
  2  9  1  0
  7 10  1  0
  8 11  1  0
 11 12  1  0
 12 13  1  0
 12 14  2  0
  5 15  1  0
 15 16  1  0
 16 17  1  0
 17 18  1  0
 18 19  1  0
 19 20  1  0
 20 21  1  0
 21 22  1  0
 22 23  2  0
 23 24  1  0
 24 25  2  0
 25 21  1  0
 23 26  1  0
 26 27  2  0
 27 28  1  0
 28 29  2  0
 29 30  1  0
 30 31  2  0
 31 26  1  0
  1 32  1  0
  2 33  1  0
  3 34  1  0
  4 35  1  0
  6 36  1  0
  7 37  1  0
  7 38  1  0
  8 39  1  0
  8 40  1  0
  9 41  1  0
 10 42  1  0
 11 43  1  0
 13 44  1  0
 13 45  1  0
 13 46  1  0
 15 47  1  0
 15 48  1  0
 16 49  1  0
 16 50  1  0
 17 51  1  0
 17 52  1  0
 18 53  1  0
 18 54  1  0
 19 55  1  0
 19 56  1  0
 20 57  1  0
 20 58  1  0
 22 59  1  0
 27 60  1  0
 28 61  1  0
 29 62  1  0
 30 63  1  0
 31 64  1  0
M  END
> <Name>
6a Pingitore et al., 2022

> <Clean Energy>
70.0823669433594

> <Reference>
Pingitore et al., 2022

> <Forcefield>
MMFF

> <ForcefieldBase>
MMFF

> <ForcefieldFFML>
<?xml version="1.0" encoding="UTF-8"?>
<!DOCTYPE ffml SYSTEM "Ffml.dtd">
<ffml version="1.0">
<forcefield name="6a Pingitore et al., 2022-MMFF" derivedFrom="MMFF" base="MMFF">
<atomTypes>
<atomType
 name="C100"
 element="C"
 mass="12.011"
 annotation=""/>
<atomType
 name="N101"
 element="N"
 mass="14.007"
 annotation=""/>
<atomType
 name="O102"
 element="O"
 mass="16"
 annotation=""/>
<atomType
 name="H103"
 element="H"
 mass="1.008"
 annotation=""/>
</atomTypes>
<parameters>
</parameters>
</forcefield>
</ffml>

$$$$
5 Pingitore et al., 2022
  SciTegic07212313593D

 50 50  0  0  0  0            999 V2000
   23.9282  -19.2390    0.0006 N   0  0
   22.9188  -18.6113    0.0001 N   0  3
   21.9119  -17.9890   -0.0004 N   0  5
   18.8730  -28.9295   -0.2863 C   0  0  2  0  0  0
   19.3305  -30.3746    0.2206 C   0  0  2  0  0  0
   20.8159  -30.4235   -0.2453 C   0  0  1  0  0  0
   21.3956  -29.0113    0.2973 C   0  0  2  0  0  0
   20.2055  -28.0578   -0.0917 N   0  0
   21.5594  -31.5676    0.2759 O   0  0
   17.5190  -28.4801    0.4635 C   0  0
   22.8947  -28.6299   -0.3720 C   0  0
   18.4735  -31.4608   -0.2799 O   0  0
   16.3777  -29.3458    0.1774 O   0  0
   24.0731  -29.5462   -0.1598 N   0  0
   25.3771  -29.1183   -0.0625 C   0  0
   26.4974  -30.1339    0.0997 C   0  0
   25.6791  -27.9147   -0.0951 O   0  0
   20.1520  -26.4676    0.0690 C   0  0
   21.5686  -25.6350   -0.0320 C   0  0
   21.4428  -24.0130    0.0251 C   0  0
   22.8653  -23.2017   -0.0110 C   0  0
   22.6648  -21.5772    0.0061 C   0  0
   24.0382  -20.7484   -0.0049 C   0  0
   18.6636  -28.9952   -1.3540 H   0  0
   19.3065  -30.3855    1.3103 H   0  0
   20.8527  -30.4346   -1.3346 H   0  0
   21.4851  -29.0516    1.3828 H   0  0
   21.5631  -31.5345    1.3254 H   0  0
   17.7000  -28.4924    1.5383 H   0  0
   17.2705  -27.4668    0.1479 H   0  0
   22.7472  -28.5524   -1.4492 H   0  0
   23.1783  -27.6561    0.0274 H   0  0
   17.4872  -31.3077    0.0462 H   0  0
   16.1820  -29.3383   -0.8542 H   0  0
   23.8832  -30.5961   -0.0797 H   0  0
   27.4537  -29.6143    0.1594 H   0  0
   26.5038  -30.8084   -0.7565 H   0  0
   26.3388  -30.7079    1.0127 H   0  0
   19.4942  -26.0846   -0.7112 H   0  0
   19.7195  -26.2547    1.0466 H   0  0
   22.2016  -25.9506    0.7973 H   0  0
   22.0457  -25.9003   -0.9754 H   0  0
   20.8491  -23.6906   -0.8303 H   0  0
   20.9264  -23.7472    0.9474 H   0  0
   23.4535  -23.4898    0.8602 H   0  0
   23.4012  -23.4775   -0.9192 H   0  0
   22.0872  -21.2943   -0.8739 H   0  0
   22.1111  -21.3101    0.9062 H   0  0
   24.6056  -21.0401    0.8789 H   0  0
   24.5882  -21.0349   -0.9013 H   0  0
  2  3  2  0
  1  2  2  0
  4  5  1  0
  5  6  1  0
  6  7  1  0
  7  8  1  0
  8  4  1  0
  6  9  1  0
  4 10  1  0
  7 11  1  0
  5 12  1  0
 10 13  1  0
 11 14  1  0
 14 15  1  0
 15 16  1  0
 15 17  2  0
  8 18  1  0
 18 19  1  0
 19 20  1  0
 20 21  1  0
 21 22  1  0
 22 23  1  0
  4 24  1  0
  5 25  1  0
  6 26  1  0
  7 27  1  0
  9 28  1  0
 10 29  1  0
 10 30  1  0
 11 31  1  0
 11 32  1  0
 12 33  1  0
 13 34  1  0
 14 35  1  0
 16 36  1  0
 16 37  1  0
 16 38  1  0
 18 39  1  0
 18 40  1  0
 19 41  1  0
 19 42  1  0
 20 43  1  0
 20 44  1  0
 21 45  1  0
 21 46  1  0
 22 47  1  0
 22 48  1  0
 23 49  1  0
 23 50  1  0
 23  1  1  0
M  CHG  2   2   1   3  -1
M  END
> <Name>
5 Pingitore et al., 2022

> <Clean Energy>
83.0790176391602

> <IC50>
632nM

> <Ki>
327nM

> <Reference>
Pingitore et al., 2022

> <Forcefield>
MMFF

> <ForcefieldBase>
MMFF

> <ForcefieldFFML>
<?xml version="1.0" encoding="UTF-8"?>
<!DOCTYPE ffml SYSTEM "Ffml.dtd">
<ffml version="1.0">
<forcefield name="5 Pingitore et al., 2022-MMFF" derivedFrom="MMFF" base="MMFF">
<atomTypes>
<atomType
 name="N100"
 element="N"
 mass="14.007"
 annotation=""/>
<atomType
 name="C101"
 element="C"
 mass="12.011"
 annotation=""/>
<atomType
 name="O102"
 element="O"
 mass="16"
 annotation=""/>
<atomType
 name="H103"
 element="H"
 mass="1.008"
 annotation=""/>
</atomTypes>
<parameters>
</parameters>
</forcefield>
</ffml>

$$$$
6b Pingitore et al., 2022
  SciTegic07212313593D

 64 65  0  0  0  0            999 V2000
   19.1372  -39.0112   -0.3272 C   0  0  2  0  0  0
   19.5686  -40.3664    0.2743 C   0  0  2  0  0  0
   20.9123  -40.5065   -0.3758 C   0  0  1  0  0  0
   21.4708  -39.1707    0.1968 C   0  0  2  0  0  0
   20.3929  -38.1995   -0.2500 N   0  0
   21.6490  -41.6538    0.0543 O   0  0
   17.8913  -38.4452    0.3783 C   0  0
   22.9060  -38.8698   -0.2843 C   0  0
   18.6252  -41.4123    0.0231 O   0  0
   16.8004  -39.3580    0.2234 O   0  0
   23.8049  -39.8872    0.1554 N   0  0
   25.1116  -39.6975    0.0130 C   0  0
   26.0797  -40.7498    0.4640 C   0  0
   25.5286  -38.6473   -0.4891 O   0  0
   20.2753  -36.7251    0.1526 C   0  0
   21.5432  -35.8567   -0.1527 C   0  0
   21.3415  -34.3489    0.1876 C   0  0
   22.6781  -33.6016   -0.1043 C   0  0
   22.5784  -32.0604    0.1207 C   0  0
   23.9860  -31.4533   -0.1433 C   0  0
   24.0281  -30.0060   -0.0327 N   0  0
   25.1835  -29.2633   -0.1103 C   0  0
   24.7585  -28.0269   -0.0128 C   0  0
   23.3555  -28.0192    0.1225 N   0  0
   22.9642  -29.1839    0.1082 N   0  0
   25.6507  -26.8041   -0.0469 C   0  0
   24.8348  -25.5005    0.0386 C   0  0
   25.8085  -24.3005   -0.0117 C   0  0
   25.0779  -23.0723    0.0538 O   0  0
   18.8942  -39.1657   -1.3785 H   0  0
   19.7013  -40.2546    1.3504 H   0  0
   20.8332  -40.4702   -1.4623 H   0  0
   21.4677  -39.2248    1.2855 H   0  0
   21.8105  -41.5985    1.0904 H   0  0
   18.1042  -38.3101    1.4388 H   0  0
   17.6275  -37.4850   -0.0650 H   0  0
   22.9175  -38.8276   -1.3735 H   0  0
   23.2258  -37.9095    0.1203 H   0  0
   17.6979  -41.1565    0.4440 H   0  0
   16.5951  -39.4887   -0.7981 H   0  0
   23.4317  -40.7894    0.5933 H   0  0
   27.0982  -40.4160    0.2663 H   0  0
   25.8895  -41.6758   -0.0787 H   0  0
   25.9560  -40.9238    1.5330 H   0  0
   19.4313  -36.2932   -0.3852 H   0  0
   20.0845  -36.6809    1.2249 H   0  0
   22.3763  -36.2381    0.4378 H   0  0
   21.7783  -35.9454   -1.2133 H   0  0
   20.5446  -33.9346   -0.4300 H   0  0
   21.0801  -34.2400    1.2402 H   0  0
   23.4493  -33.9994    0.5554 H   0  0
   22.9578  -33.7834   -1.1420 H   0  0
   21.8531  -31.6305   -0.5701 H   0  0
   22.2713  -31.8539    1.1459 H   0  0
   24.6834  -31.8740    0.5812 H   0  0
   24.2967  -31.7304   -1.1507 H   0  0
   26.2077  -29.6180   -0.2254 H   0  0
   26.3392  -26.8458    0.7972 H   0  0
   26.2167  -26.8059   -0.9785 H   0  0
   24.1423  -25.4459   -0.8014 H   0  0
   24.2750  -25.4792    0.9736 H   0  0
   26.4946  -24.3573    0.8334 H   0  0
   26.3744  -24.3342   -0.9427 H   0  0
   24.4169  -23.0139   -0.7600 H   0  0
  1  2  1  0
  2  3  1  0
  3  4  1  0
  4  5  1  0
  5  1  1  0
  3  6  1  0
  1  7  1  0
  4  8  1  0
  2  9  1  0
  7 10  1  0
  8 11  1  0
 11 12  1  0
 12 13  1  0
 12 14  2  0
  5 15  1  0
 15 16  1  0
 16 17  1  0
 17 18  1  0
 18 19  1  0
 19 20  1  0
 20 21  1  0
 21 22  1  0
 22 23  2  0
 23 24  1  0
 24 25  2  0
 25 21  1  0
 23 26  1  0
 26 27  1  0
 27 28  1  0
 28 29  1  0
  1 30  1  0
  2 31  1  0
  3 32  1  0
  4 33  1  0
  6 34  1  0
  7 35  1  0
  7 36  1  0
  8 37  1  0
  8 38  1  0
  9 39  1  0
 10 40  1  0
 11 41  1  0
 13 42  1  0
 13 43  1  0
 13 44  1  0
 15 45  1  0
 15 46  1  0
 16 47  1  0
 16 48  1  0
 17 49  1  0
 17 50  1  0
 18 51  1  0
 18 52  1  0
 19 53  1  0
 19 54  1  0
 20 55  1  0
 20 56  1  0
 22 57  1  0
 26 58  1  0
 26 59  1  0
 27 60  1  0
 27 61  1  0
 28 62  1  0
 28 63  1  0
 29 64  1  0
M  END
> <Name>
6b Pingitore et al., 2022

> <Clean Energy>
70.2030258178711

> <Reference>
Pingitore et al., 2022

> <Forcefield>
MMFF

> <ForcefieldBase>
MMFF

> <ForcefieldFFML>
<?xml version="1.0" encoding="UTF-8"?>
<!DOCTYPE ffml SYSTEM "Ffml.dtd">
<ffml version="1.0">
<forcefield name="6b Pingitore et al., 2022-MMFF" derivedFrom="MMFF" base="MMFF">
<atomTypes>
<atomType
 name="C100"
 element="C"
 mass="12.011"
 annotation=""/>
<atomType
 name="N101"
 element="N"
 mass="14.007"
 annotation=""/>
<atomType
 name="O102"
 element="O"
 mass="16"
 annotation=""/>
<atomType
 name="H103"
 element="H"
 mass="1.008"
 annotation=""/>
</atomTypes>
<parameters>
</parameters>
</forcefield>
</ffml>

$$$$
6c Pingitore et al., 2022
  SciTegic07212313593D

 58 59  0  0  0  0            999 V2000
   18.9028  -39.8511   -0.3284 C   0  0  2  0  0  0
   19.3381  -41.2020    0.2776 C   0  0  2  0  0  0
   20.6820  -41.3415   -0.3752 C   0  0  1  0  0  0
   21.2377  -40.0043    0.1910 C   0  0  2  0  0  0
   20.1547  -39.0380   -0.2561 N   0  0
   21.4231  -42.4846    0.0571 O   0  0
   17.6560  -39.2822    0.3739 C   0  0
   22.6727  -39.7003   -0.2944 C   0  0
   18.3968  -42.2505    0.0315 O   0  0
   16.5657  -40.1960    0.2236 O   0  0
   23.5809  -40.7069    0.1480 N   0  0
   24.8856  -40.4971    0.0136 C   0  0
   25.8670  -41.5357    0.4673 C   0  0
   25.2896  -39.4391   -0.4828 O   0  0
   20.0341  -37.5698    0.1514 C   0  0
   21.3009  -36.7125   -0.1570 C   0  0
   21.1171  -35.2134    0.1893 C   0  0
   22.4623  -34.4964   -0.1066 C   0  0
   22.3801  -32.9645    0.1190 C   0  0
   23.7858  -32.3673   -0.1485 C   0  0
   23.7955  -30.9296   -0.0368 N   0  0
   24.9267  -30.1499   -0.1204 C   0  0
   24.4547  -28.9308   -0.0100 C   0  0
   23.0572  -28.9745    0.1377 N   0  0
   22.7077  -30.1490    0.1187 N   0  0
   25.2815  -27.6713   -0.0395 C   0  0
   24.4331  -26.5284    0.0823 O   0  0
   18.6597  -40.0109   -1.3789 H   0  0
   19.4723  -41.0858    1.3531 H   0  0
   20.6006  -41.3089   -1.4617 H   0  0
   21.2372  -40.0552    1.2798 H   0  0
   21.5869  -42.4251    1.0925 H   0  0
   17.8686  -39.1414    1.4336 H   0  0
   17.3918  -38.3245   -0.0746 H   0  0
   22.6814  -39.6652   -1.3838 H   0  0
   22.9875  -38.7355    0.1032 H   0  0
   17.4695  -41.9950    0.4527 H   0  0
   16.3607  -40.3322   -0.7971 H   0  0
   23.2175  -41.6155    0.5808 H   0  0
   26.8814  -41.1858    0.2762 H   0  0
   25.6941  -42.4629   -0.0791 H   0  0
   25.7400  -41.7145    1.5350 H   0  0
   19.1894  -37.1353   -0.3832 H   0  0
   19.8463  -37.5276    1.2243 H   0  0
   22.1350  -37.1036    0.4255 H   0  0
   21.5276  -36.7980   -1.2198 H   0  0
   20.3245  -34.7846   -0.4238 H   0  0
   20.8614  -35.1039    1.2432 H   0  0
   23.2288  -34.9060    0.5513 H   0  0
   22.7367  -34.6826   -1.1449 H   0  0
   21.6553  -32.5275   -0.5679 H   0  0
   22.0790  -32.7572    1.1459 H   0  0
   24.4868  -32.7806    0.5766 H   0  0
   24.0989  -32.6434   -1.1554 H   0  0
   25.9616  -30.4677   -0.2473 H   0  0
   25.9899  -27.6851    0.7888 H   0  0
   25.8254  -27.6185   -0.9826 H   0  0
   23.7502  -26.5122   -0.7152 H   0  0
  1  2  1  0
  2  3  1  0
  3  4  1  0
  4  5  1  0
  5  1  1  0
  3  6  1  0
  1  7  1  0
  4  8  1  0
  2  9  1  0
  7 10  1  0
  8 11  1  0
 11 12  1  0
 12 13  1  0
 12 14  2  0
  5 15  1  0
 15 16  1  0
 16 17  1  0
 17 18  1  0
 18 19  1  0
 19 20  1  0
 20 21  1  0
 21 22  1  0
 22 23  2  0
 23 24  1  0
 24 25  2  0
 25 21  1  0
 23 26  1  0
 26 27  1  0
  1 28  1  0
  2 29  1  0
  3 30  1  0
  4 31  1  0
  6 32  1  0
  7 33  1  0
  7 34  1  0
  8 35  1  0
  8 36  1  0
  9 37  1  0
 10 38  1  0
 11 39  1  0
 13 40  1  0
 13 41  1  0
 13 42  1  0
 15 43  1  0
 15 44  1  0
 16 45  1  0
 16 46  1  0
 17 47  1  0
 17 48  1  0
 18 49  1  0
 18 50  1  0
 19 51  1  0
 19 52  1  0
 20 53  1  0
 20 54  1  0
 22 55  1  0
 26 56  1  0
 26 57  1  0
 27 58  1  0
M  END
> <Name>
6c Pingitore et al., 2022

> <Clean Energy>
69.9678115844727

> <Reference>
Pingitore et al., 2022

> <Forcefield>
MMFF

> <ForcefieldBase>
MMFF

> <ForcefieldFFML>
<?xml version="1.0" encoding="UTF-8"?>
<!DOCTYPE ffml SYSTEM "Ffml.dtd">
<ffml version="1.0">
<forcefield name="6c Pingitore et al., 2022-MMFF" derivedFrom="MMFF" base="MMFF">
<atomTypes>
<atomType
 name="C100"
 element="C"
 mass="12.011"
 annotation=""/>
<atomType
 name="N101"
 element="N"
 mass="14.007"
 annotation=""/>
<atomType
 name="O102"
 element="O"
 mass="16"
 annotation=""/>
<atomType
 name="H103"
 element="H"
 mass="1.008"
 annotation=""/>
</atomTypes>
<parameters>
</parameters>
</forcefield>
</ffml>

$$$$
6d Pingitore et al., 2022
  SciTegic07212313593D

 59 60  0  0  0  0            999 V2000
   18.9022  -39.8520   -0.3284 C   0  0  2  0  0  0
   19.3378  -41.2028    0.2777 C   0  0  2  0  0  0
   20.6817  -41.3420   -0.3752 C   0  0  1  0  0  0
   21.2372  -40.0048    0.1910 C   0  0  2  0  0  0
   20.1539  -39.0386   -0.2561 N   0  0
   21.4230  -42.4850    0.0571 O   0  0
   17.6554  -39.2833    0.3738 C   0  0
   22.6722  -39.7005   -0.2944 C   0  0
   18.3967  -42.2514    0.0316 O   0  0
   16.5652  -40.1973    0.2236 O   0  0
   23.5805  -40.7070    0.1480 N   0  0
   24.8852  -40.4970    0.0136 C   0  0
   25.8667  -41.5354    0.4673 C   0  0
   25.2890  -39.4389   -0.4829 O   0  0
   20.0331  -37.5704    0.1515 C   0  0
   21.2998  -36.7130   -0.1570 C   0  0
   21.1160  -35.2139    0.1894 C   0  0
   22.4614  -34.4973   -0.1064 C   0  0
   22.3799  -32.9653    0.1192 C   0  0
   23.7864  -32.3695   -0.1482 C   0  0
   23.7976  -30.9311   -0.0366 N   0  0
   24.9310  -30.1555   -0.1201 C   0  0
   24.4587  -28.9315   -0.0101 C   0  0
   23.0626  -28.9763    0.1366 N   0  0
   22.7108  -30.1491    0.1181 N   0  0
   25.2891  -27.6762   -0.0399 C   0  0
   24.4181  -26.4994    0.0832 N   0  0
   18.6592  -40.0118   -1.3789 H   0  0
   19.4720  -41.0866    1.3531 H   0  0
   20.6003  -41.3095   -1.4616 H   0  0
   21.2367  -40.0556    1.2798 H   0  0
   21.5868  -42.4254    1.0925 H   0  0
   17.8679  -39.1424    1.4336 H   0  0
   17.3909  -38.3257   -0.0746 H   0  0
   22.6808  -39.6654   -1.3838 H   0  0
   22.9867  -38.7356    0.1032 H   0  0
   17.4694  -41.9961    0.4527 H   0  0
   16.3602  -40.3335   -0.7972 H   0  0
   23.2173  -41.6156    0.5808 H   0  0
   26.8811  -41.1854    0.2761 H   0  0
   25.6940  -42.4627   -0.0791 H   0  0
   25.7398  -41.7142    1.5350 H   0  0
   19.1883  -37.1361   -0.3832 H   0  0
   19.8452  -37.5283    1.2243 H   0  0
   22.1339  -37.1041    0.4256 H   0  0
   21.5264  -36.7985   -1.2197 H   0  0
   20.3235  -34.7849   -0.4239 H   0  0
   20.8601  -35.1043    1.2433 H   0  0
   23.2277  -34.9071    0.5515 H   0  0
   22.7357  -34.6836   -1.1447 H   0  0
   21.6556  -32.5278   -0.5680 H   0  0
   22.0788  -32.7576    1.1460 H   0  0
   24.4869  -32.7834    0.5772 H   0  0
   24.0994  -32.6460   -1.1550 H   0  0
   25.9652  -30.4756   -0.2464 H   0  0
   25.9965  -27.6908    0.7892 H   0  0
   25.8342  -27.6256   -0.9825 H   0  0
   23.8825  -26.5467    1.0083 H   0  0
   23.7232  -26.4827   -0.7304 H   0  0
  1  2  1  0
  2  3  1  0
  3  4  1  0
  4  5  1  0
  5  1  1  0
  3  6  1  0
  1  7  1  0
  4  8  1  0
  2  9  1  0
  7 10  1  0
  8 11  1  0
 11 12  1  0
 12 13  1  0
 12 14  2  0
  5 15  1  0
 15 16  1  0
 16 17  1  0
 17 18  1  0
 18 19  1  0
 19 20  1  0
 20 21  1  0
 21 22  1  0
 22 23  2  0
 23 24  1  0
 24 25  2  0
 25 21  1  0
 23 26  1  0
 26 27  1  0
  1 28  1  0
  2 29  1  0
  3 30  1  0
  4 31  1  0
  6 32  1  0
  7 33  1  0
  7 34  1  0
  8 35  1  0
  8 36  1  0
  9 37  1  0
 10 38  1  0
 11 39  1  0
 13 40  1  0
 13 41  1  0
 13 42  1  0
 15 43  1  0
 15 44  1  0
 16 45  1  0
 16 46  1  0
 17 47  1  0
 17 48  1  0
 18 49  1  0
 18 50  1  0
 19 51  1  0
 19 52  1  0
 20 53  1  0
 20 54  1  0
 22 55  1  0
 26 56  1  0
 26 57  1  0
 27 58  1  0
 27 59  1  0
M  END
> <Name>
6d Pingitore et al., 2022

> <Clean Energy>
69.9512252807617

> <Reference>
Pingitore et al., 2022

> <Forcefield>
MMFF

> <ForcefieldBase>
MMFF

> <ForcefieldFFML>
<?xml version="1.0" encoding="UTF-8"?>
<!DOCTYPE ffml SYSTEM "Ffml.dtd">
<ffml version="1.0">
<forcefield name="6d Pingitore et al., 2022-MMFF" derivedFrom="MMFF" base="MMFF">
<atomTypes>
<atomType
 name="C100"
 element="C"
 mass="12.011"
 annotation=""/>
<atomType
 name="N101"
 element="N"
 mass="14.007"
 annotation=""/>
<atomType
 name="O102"
 element="O"
 mass="16"
 annotation=""/>
<atomType
 name="H103"
 element="H"
 mass="1.008"
 annotation=""/>
</atomTypes>
<parameters>
</parameters>
</forcefield>
</ffml>

$$$$
6e Pingitore et al., 2022
  SciTegic07212313593D

 60 61  0  0  0  0            999 V2000
   19.1972  -39.1542   -0.3256 C   0  0  2  0  0  0
   19.6229  -40.5147    0.2717 C   0  0  2  0  0  0
   20.9656  -40.6587   -0.3778 C   0  0  1  0  0  0
   21.5308  -39.3265    0.1984 C   0  0  2  0  0  0
   20.4588  -38.3484   -0.2458 N   0  0
   21.6973  -41.8106    0.0487 O   0  0
   17.9541  -38.5881    0.3843 C   0  0
   22.9652  -39.0299   -0.2852 C   0  0
   18.6749  -41.5561    0.0170 O   0  0
   16.8602  -39.4976    0.2256 O   0  0
   23.8668  -40.0453    0.1483 N   0  0
   25.1719  -39.8399    0.0142 C   0  0
   26.1499  -40.8862    0.4569 C   0  0
   25.5789  -38.7789   -0.4732 O   0  0
   20.3543  -36.8677    0.1497 C   0  0
   21.6365  -36.0114   -0.1515 C   0  0
   21.4548  -34.4974    0.1790 C   0  0
   22.8066  -33.7640   -0.0995 C   0  0
   22.7110  -32.2196    0.1136 C   0  0
   24.1215  -31.5981   -0.1258 C   0  0
   24.1214  -30.1475   -0.0244 N   0  0
   25.2566  -29.3625   -0.0755 C   0  0
   24.7730  -28.1364    0.0056 C   0  0
   23.3725  -28.1925    0.1031 N   0  0
   23.0266  -29.3676    0.0844 N   0  0
   25.5775  -26.9036   -0.0066 C   0  0
   24.9542  -25.6571    0.0680 O   0  0
   26.8107  -26.9737   -0.0857 O   0  0
   25.9397  -24.6171    0.0353 C   0  0
   18.9525  -39.3037   -1.3772 H   0  0
   19.7557  -40.4070    1.3482 H   0  0
   20.8868  -40.6190   -1.4642 H   0  0
   21.5290  -39.3830    1.2870 H   0  0
   21.8587  -41.7594    1.0850 H   0  0
   18.1686  -38.4591    1.4452 H   0  0
   17.6925  -37.6249   -0.0537 H   0  0
   22.9730  -38.9867   -1.3743 H   0  0
   23.2871  -38.0703    0.1193 H   0  0
   17.7487  -41.2978    0.4389 H   0  0
   16.6536  -39.6223   -0.7963 H   0  0
   23.4990  -40.9557    0.5735 H   0  0
   27.1654  -40.5383    0.2676 H   0  0
   25.9727  -41.8077   -0.0976 H   0  0
   26.0237  -41.0743    1.5232 H   0  0
   19.5187  -36.4296   -0.3961 H   0  0
   20.1566  -36.8163    1.2204 H   0  0
   22.4610  -36.4000    0.4463 H   0  0
   21.8773  -36.1086   -1.2101 H   0  0
   20.6710  -34.0753   -0.4500 H   0  0
   21.1822  -34.3802    1.2278 H   0  0
   23.5646  -34.1625    0.5749 H   0  0
   23.1008  -33.9558   -1.1314 H   0  0
   21.9976  -31.7947   -0.5925 H   0  0
   22.3846  -32.0087    1.1320 H   0  0
   24.8098  -31.9992    0.6181 H   0  0
   24.4606  -31.8775   -1.1233 H   0  0
   26.2964  -29.6778   -0.1617 H   0  0
   25.4468  -23.6468    0.0939 H   0  0
   26.5054  -24.6811   -0.8943 H   0  0
   26.6175  -24.7314    0.8812 H   0  0
  1  2  1  0
  2  3  1  0
  3  4  1  0
  4  5  1  0
  5  1  1  0
  3  6  1  0
  1  7  1  0
  4  8  1  0
  2  9  1  0
  7 10  1  0
  8 11  1  0
 11 12  1  0
 12 13  1  0
 12 14  2  0
  5 15  1  0
 15 16  1  0
 16 17  1  0
 17 18  1  0
 18 19  1  0
 19 20  1  0
 20 21  1  0
 21 22  1  0
 22 23  2  0
 23 24  1  0
 24 25  2  0
 25 21  1  0
 23 26  1  0
 26 27  1  0
 26 28  2  0
 27 29  1  0
  1 30  1  0
  2 31  1  0
  3 32  1  0
  4 33  1  0
  6 34  1  0
  7 35  1  0
  7 36  1  0
  8 37  1  0
  8 38  1  0
  9 39  1  0
 10 40  1  0
 11 41  1  0
 13 42  1  0
 13 43  1  0
 13 44  1  0
 15 45  1  0
 15 46  1  0
 16 47  1  0
 16 48  1  0
 17 49  1  0
 17 50  1  0
 18 51  1  0
 18 52  1  0
 19 53  1  0
 19 54  1  0
 20 55  1  0
 20 56  1  0
 22 57  1  0
 29 58  1  0
 29 59  1  0
 29 60  1  0
M  END
> <Name>
6e Pingitore et al., 2022

> <Clean Energy>
70.0858459472656

> <Reference>
Pingitore et al., 2022

> <Forcefield>
MMFF

> <ForcefieldBase>
MMFF

> <ForcefieldFFML>
<?xml version="1.0" encoding="UTF-8"?>
<!DOCTYPE ffml SYSTEM "Ffml.dtd">
<ffml version="1.0">
<forcefield name="6e Pingitore et al., 2022-MMFF" derivedFrom="MMFF" base="MMFF">
<atomTypes>
<atomType
 name="C100"
 element="C"
 mass="12.011"
 annotation=""/>
<atomType
 name="N101"
 element="N"
 mass="14.007"
 annotation=""/>
<atomType
 name="O102"
 element="O"
 mass="16"
 annotation=""/>
<atomType
 name="H103"
 element="H"
 mass="1.008"
 annotation=""/>
</atomTypes>
<parameters>
</parameters>
</forcefield>
</ffml>

$$$$
6f Pingitore et al., 2022
  SciTegic07212313593D

 66 67  0  0  0  0            999 V2000
   19.3038  -38.2080   -0.3266 C   0  0  2  0  0  0
   19.7303  -39.5673    0.2717 C   0  0  2  0  0  0
   21.0735  -39.7100   -0.3766 C   0  0  1  0  0  0
   21.6362  -38.3756    0.2004 C   0  0  2  0  0  0
   20.5641  -37.3990   -0.2462 N   0  0
   21.8054  -40.8613    0.0520 O   0  0
   18.0593  -37.6430    0.3819 C   0  0
   23.0714  -38.0788   -0.2784 C   0  0
   18.7838  -40.6101    0.0169 O   0  0
   16.9669  -38.5542    0.2237 O   0  0
   23.9634  -39.1038    0.1591 N   0  0
   25.2712  -38.9260    0.0130 C   0  0
   26.2309  -39.9871    0.4616 C   0  0
   25.6962  -37.8798   -0.4906 O   0  0
   20.4528  -35.9183    0.1515 C   0  0
   21.7246  -35.0430   -0.1511 C   0  0
   21.5108  -33.5275    0.1833 C   0  0
   22.8398  -32.7516   -0.1041 C   0  0
   22.7130  -31.2031    0.1185 C   0  0
   24.1131  -30.5627   -0.1404 C   0  0
   24.1434  -29.1050   -0.0309 N   0  0
   25.2975  -28.3577   -0.0987 C   0  0
   24.8712  -27.1175   -0.0081 C   0  0
   23.4657  -27.1146    0.1139 N   0  0
   23.0757  -28.2817    0.0986 N   0  0
   25.7806  -25.8972   -0.0360 C   0  0
   25.0177  -24.5517    0.0222 C   0  0
   26.0723  -23.4103   -0.0133 C   0  0
   25.4244  -22.0493    0.0147 C   0  0
   26.2195  -20.9026    0.0007 O   0  0
   24.1935  -21.9446    0.0429 O   0  0
   19.0601  -38.3583   -1.3783 H   0  0
   19.8623  -39.4589    1.3482 H   0  0
   20.9959  -39.6710   -1.4631 H   0  0
   21.6316  -38.4318    1.2889 H   0  0
   21.9654  -40.8092    1.0884 H   0  0
   18.2730  -37.5125    1.4428 H   0  0
   17.7965  -36.6807   -0.0574 H   0  0
   23.0843  -38.0322   -1.3673 H   0  0
   23.3957  -37.1219    0.1306 H   0  0
   17.8569  -40.3527    0.4380 H   0  0
   16.7610  -38.6804   -0.7982 H   0  0
   23.5837  -40.0025    0.5985 H   0  0
   27.2519  -39.6627    0.2609 H   0  0
   26.0308  -40.9114   -0.0804 H   0  0
   26.1086  -40.1597    1.5309 H   0  0
   19.6108  -35.4869   -0.3897 H   0  0
   20.2591  -35.8713    1.2231 H   0  0
   22.5556  -35.4177    0.4466 H   0  0
   21.9671  -35.1352   -1.2097 H   0  0
   20.7108  -33.1252   -0.4382 H   0  0
   21.2442  -33.4191    1.2346 H   0  0
   23.6148  -33.1345    0.5599 H   0  0
   23.1277  -32.9300   -1.1402 H   0  0
   21.9824  -30.7883   -0.5760 H   0  0
   22.3975  -31.0013    1.1421 H   0  0
   24.8145  -30.9731    0.5860 H   0  0
   24.4309  -30.8349   -1.1469 H   0  0
   26.3233  -28.7111   -0.2030 H   0  0
   26.4525  -25.9491    0.8207 H   0  0
   26.3629  -25.9230   -0.9571 H   0  0
   24.3492  -24.4665   -0.8346 H   0  0
   24.4378  -24.4931    0.9433 H   0  0
   26.7267  -23.5074    0.8530 H   0  0
   26.6610  -23.5021   -0.9260 H   0  0
   26.8497  -20.9028    0.8406 H   0  0
  1  2  1  0
  2  3  1  0
  3  4  1  0
  4  5  1  0
  5  1  1  0
  3  6  1  0
  1  7  1  0
  4  8  1  0
  2  9  1  0
  7 10  1  0
  8 11  1  0
 11 12  1  0
 12 13  1  0
 12 14  2  0
  5 15  1  0
 15 16  1  0
 16 17  1  0
 17 18  1  0
 18 19  1  0
 19 20  1  0
 20 21  1  0
 21 22  1  0
 22 23  2  0
 23 24  1  0
 24 25  2  0
 25 21  1  0
 23 26  1  0
 26 27  1  0
 27 28  1  0
 28 29  1  0
 29 30  1  0
 29 31  2  0
  1 32  1  0
  2 33  1  0
  3 34  1  0
  4 35  1  0
  6 36  1  0
  7 37  1  0
  7 38  1  0
  8 39  1  0
  8 40  1  0
  9 41  1  0
 10 42  1  0
 11 43  1  0
 13 44  1  0
 13 45  1  0
 13 46  1  0
 15 47  1  0
 15 48  1  0
 16 49  1  0
 16 50  1  0
 17 51  1  0
 17 52  1  0
 18 53  1  0
 18 54  1  0
 19 55  1  0
 19 56  1  0
 20 57  1  0
 20 58  1  0
 22 59  1  0
 26 60  1  0
 26 61  1  0
 27 62  1  0
 27 63  1  0
 28 64  1  0
 28 65  1  0
 30 66  1  0
M  END
> <Name>
6f Pingitore et al., 2022

> <Clean Energy>
70.9120635986328

> <Reference>
Pingitore et al., 2022

> <Forcefield>
MMFF

> <ForcefieldBase>
MMFF

> <ForcefieldFFML>
<?xml version="1.0" encoding="UTF-8"?>
<!DOCTYPE ffml SYSTEM "Ffml.dtd">
<ffml version="1.0">
<forcefield name="6f Pingitore et al., 2022-MMFF" derivedFrom="MMFF" base="MMFF">
<atomTypes>
<atomType
 name="C100"
 element="C"
 mass="12.011"
 annotation=""/>
<atomType
 name="N101"
 element="N"
 mass="14.007"
 annotation=""/>
<atomType
 name="O102"
 element="O"
 mass="16"
 annotation=""/>
<atomType
 name="H103"
 element="H"
 mass="1.008"
 annotation=""/>
</atomTypes>
<parameters>
</parameters>
</forcefield>
</ffml>

$$$$
6g Pingitore et al., 2022
  SciTegic07212313593D

 71 73  0  0  0  0            999 V2000
   19.6111  -38.3470   -0.3284 C   0  0  2  0  0  0
   20.0362  -39.7082    0.2707 C   0  0  2  0  0  0
   21.3780  -39.8549   -0.3765 C   0  0  1  0  0  0
   21.9451  -38.5210    0.1979 C   0  0  2  0  0  0
   20.8758  -37.5421   -0.2511 N   0  0
   22.1076  -41.0071    0.0534 O   0  0
   18.3701  -37.7826    0.3864 C   0  0
   23.3798  -38.2307   -0.2859 C   0  0
   19.0873  -40.7497    0.0182 O   0  0
   17.2764  -38.6935    0.2302 O   0  0
   24.2755  -39.2497    0.1518 N   0  0
   25.5816  -39.0555    0.0140 C   0  0
   26.5519  -40.1069    0.4612 C   0  0
   25.9961  -38.0008   -0.4808 O   0  0
   20.7772  -36.0518    0.1238 C   0  0
   22.0650  -35.2004   -0.1902 C   0  0
   21.8945  -33.6752    0.1183 C   0  0
   23.2556  -32.9509   -0.1680 C   0  0
   23.1818  -31.3976    0.0318 C   0  0
   24.6090  -30.7955   -0.1952 C   0  0
   24.6470  -29.3401   -0.0802 N   0  0
   25.8093  -28.5921    0.0026 C   0  0
   25.3617  -27.3519    0.0834 C   0  0
   23.9557  -27.3622    0.0480 N   0  0
   23.5739  -28.5236   -0.0449 N   0  0
   26.2273  -26.1107    0.2125 C   0  0
   27.3997  -26.1579   -0.7990 C   0  0
   28.3249  -24.8875   -0.6727 C   0  0
   27.7310  -23.8056    0.2846 C   0  0
   26.2606  -23.5187   -0.0863 C   0  0
   25.3833  -24.8231   -0.0462 C   0  0
   26.7805  -26.1361    1.5460 O   0  0
   19.3633  -38.4969   -1.3792 H   0  0
   20.1688  -39.5990    1.3471 H   0  0
   21.3003  -39.8174   -1.4631 H   0  0
   21.9421  -38.5743    1.2866 H   0  0
   22.2677  -40.9541    1.0897 H   0  0
   18.5881  -37.6544    1.4467 H   0  0
   18.1060  -36.8192   -0.0498 H   0  0
   23.3886  -38.1904   -1.3751 H   0  0
   23.7055  -37.2714    0.1163 H   0  0
   18.1616  -40.4903    0.4404 H   0  0
   17.0666  -38.8174   -0.7911 H   0  0
   23.9019  -40.1547    0.5834 H   0  0
   27.5698  -39.7686    0.2678 H   0  0
   26.3662  -41.0304   -0.0874 H   0  0
   26.4263  -40.2875    1.5288 H   0  0
   19.9428  -35.6188   -0.4280 H   0  0
   20.5800  -35.9845    1.1937 H   0  0
   22.8880  -35.5845    0.4125 H   0  0
   22.3045  -35.3140   -1.2475 H   0  0
   21.1151  -33.2569   -0.5186 H   0  0
   21.6203  -33.5409    1.1647 H   0  0
   24.0104  -33.3518    0.5085 H   0  0
   23.5460  -33.1542   -1.1988 H   0  0
   22.4838  -30.9679   -0.6868 H   0  0
   22.8457  -31.1734    1.0441 H   0  0
   25.2850  -31.2189    0.5477 H   0  0
   24.9463  -31.0725   -1.1940 H   0  0
   26.8418  -28.9414    0.0015 H   0  0
   27.9959  -27.0502   -0.6082 H   0  0
   26.9937  -26.2009   -1.8096 H   0  0
   29.2957  -25.1995   -0.2874 H   0  0
   28.4505  -24.4473   -1.6619 H   0  0
   27.7796  -24.1674    1.3116 H   0  0
   28.3111  -22.8872    0.1945 H   0  0
   25.8526  -22.7972    0.6216 H   0  0
   26.2256  -23.1008   -1.0924 H   0  0
   24.6469  -24.7232    0.7512 H   0  0
   24.8716  -24.9283   -1.0029 H   0  0
   26.0008  -26.1251    2.2492 H   0  0
  1  2  1  0
  2  3  1  0
  3  4  1  0
  4  5  1  0
  5  1  1  0
  3  6  1  0
  1  7  1  0
  4  8  1  0
  2  9  1  0
  7 10  1  0
  8 11  1  0
 11 12  1  0
 12 13  1  0
 12 14  2  0
  5 15  1  0
 15 16  1  0
 16 17  1  0
 17 18  1  0
 18 19  1  0
 19 20  1  0
 20 21  1  0
 21 22  1  0
 22 23  2  0
 23 24  1  0
 24 25  2  0
 25 21  1  0
 23 26  1  0
 26 27  1  0
 27 28  1  0
 28 29  1  0
 29 30  1  0
 30 31  1  0
 31 26  1  0
 26 32  1  0
  1 33  1  0
  2 34  1  0
  3 35  1  0
  4 36  1  0
  6 37  1  0
  7 38  1  0
  7 39  1  0
  8 40  1  0
  8 41  1  0
  9 42  1  0
 10 43  1  0
 11 44  1  0
 13 45  1  0
 13 46  1  0
 13 47  1  0
 15 48  1  0
 15 49  1  0
 16 50  1  0
 16 51  1  0
 17 52  1  0
 17 53  1  0
 18 54  1  0
 18 55  1  0
 19 56  1  0
 19 57  1  0
 20 58  1  0
 20 59  1  0
 22 60  1  0
 27 61  1  0
 27 62  1  0
 28 63  1  0
 28 64  1  0
 29 65  1  0
 29 66  1  0
 30 67  1  0
 30 68  1  0
 31 69  1  0
 31 70  1  0
 32 71  1  0
M  END
> <Name>
6g Pingitore et al., 2022

> <Clean Energy>
99.5657424926758

> <Reference>
Pingitore et al., 2022

> <Forcefield>
MMFF

> <ForcefieldBase>
MMFF

> <ForcefieldFFML>
<?xml version="1.0" encoding="UTF-8"?>
<!DOCTYPE ffml SYSTEM "Ffml.dtd">
<ffml version="1.0">
<forcefield name="6g Pingitore et al., 2022-MMFF" derivedFrom="MMFF" base="MMFF">
<atomTypes>
<atomType
 name="C100"
 element="C"
 mass="12.011"
 annotation=""/>
<atomType
 name="N101"
 element="N"
 mass="14.007"
 annotation=""/>
<atomType
 name="O102"
 element="O"
 mass="16"
 annotation=""/>
<atomType
 name="H103"
 element="H"
 mass="1.008"
 annotation=""/>
</atomTypes>
<parameters>
</parameters>
</forcefield>
</ffml>

$$$$
6h Pingitore et al., 2022
  SciTegic07212313593D

 75 77  0  0  0  0            999 V2000
   20.1332  -37.3661   -0.3102 C   0  0  2  0  0  0
   20.5578  -38.7294    0.2782 C   0  0  2  0  0  0
   21.8979  -38.8731   -0.3819 C   0  0  1  0  0  0
   22.4681  -37.5461    0.1972 C   0  0  2  0  0  0
   21.3972  -36.5594   -0.2317 N   0  0
   22.6290  -40.0291    0.0357 O   0  0
   18.8897  -36.7986    0.3967 C   0  0
   23.9018  -37.2487   -0.2827 C   0  0
   19.6074  -39.7684    0.0214 O   0  0
   17.7957  -37.7081    0.2350 O   0  0
   24.7920  -38.2774    0.1479 N   0  0
   26.0999  -38.0977    0.0076 C   0  0
   27.0585  -39.1620    0.4507 C   0  0
   26.5259  -37.0471   -0.4856 O   0  0
   21.3093  -35.0903    0.2135 C   0  0
   22.5612  -34.2128   -0.1669 C   0  0
   22.4306  -32.7159    0.2788 C   0  0
   23.7150  -31.9445   -0.1840 C   0  0
   23.6946  -30.4166    0.1772 C   0  0
   24.9963  -29.7642   -0.3973 C   0  0
   25.1020  -28.3252   -0.1645 N   0  0
   26.0628  -27.5071   -0.7398 C   0  0
   25.7934  -26.3201   -0.2697 C   0  0
   24.6668  -26.4105    0.5948 N   0  0
   24.2955  -27.5841    0.6228 N   0  0
   26.5826  -25.0292   -0.6263 C   0  0
   26.2562  -23.8248    0.2200 N   0  0
   27.0076  -22.5794   -0.2008 C   0  0
   24.8281  -23.4961    0.0615 C   0  0
   28.5397  -22.5202   -0.0187 C   0  0
   29.2600  -23.5382    0.4579 C   0  0
   30.7173  -23.4088    0.6073 C   0  0
   31.3275  -22.2711    0.2785 C   0  0
   30.5458  -21.1480   -0.2330 C   0  0
   29.2265  -21.2658   -0.3760 C   0  0
   19.8885  -37.5119   -1.3624 H   0  0
   20.6969  -38.6282    1.3545 H   0  0
   21.8126  -38.8282   -1.4677 H   0  0
   22.4693  -37.6107    1.2853 H   0  0
   22.7965  -39.9826    1.0712 H   0  0
   19.1017  -36.6697    1.4581 H   0  0
   18.6297  -35.8353   -0.0421 H   0  0
   23.9128  -37.1965   -1.3714 H   0  0
   24.2285  -36.2945    0.1307 H   0  0
   18.6829  -39.5109    0.4476 H   0  0
   17.5917  -37.8327   -0.7875 H   0  0
   24.4110  -39.1802    0.5776 H   0  0
   28.0800  -38.8355    0.2561 H   0  0
   26.8606  -40.0820   -0.0995 H   0  0
   26.9328  -39.3434    1.5182 H   0  0
   20.4293  -34.6464   -0.2519 H   0  0
   21.1969  -35.0699    1.2975 H   0  0
   23.4415  -34.6405    0.3130 H   0  0
   22.6869  -34.2412   -1.2492 H   0  0
   21.5487  -32.2709   -0.1819 H   0  0
   22.3407  -32.6620    1.3638 H   0  0
   24.5818  -32.4002    0.2946 H   0  0
   23.8039  -32.0415   -1.2661 H   0  0
   22.8180  -29.9439   -0.2657 H   0  0
   23.6664  -30.2933    1.2599 H   0  0
   25.8547  -30.2489    0.0678 H   0  0
   25.0189  -29.9382   -1.4731 H   0  0
   26.8599  -27.7906   -1.4270 H   0  0
   27.6457  -25.2421   -0.5145 H   0  0
   26.3688  -24.7794   -1.6655 H   0  0
   26.8083  -22.4321   -1.2623 H   0  0
   26.5883  -21.7488    0.3669 H   0  0
   24.5852  -22.6257    0.6709 H   0  0
   24.2220  -24.3436    0.3815 H   0  0
   24.6195  -23.2755   -0.9854 H   0  0
   28.7661  -24.4689    0.7374 H   0  0
   31.3004  -24.2470    0.9887 H   0  0
   32.4077  -22.1785    0.3909 H   0  0
   31.0418  -20.2142   -0.4976 H   0  0
   28.6487  -20.4256   -0.7612 H   0  0
  1  2  1  0
  2  3  1  0
  3  4  1  0
  4  5  1  0
  5  1  1  0
  3  6  1  0
  1  7  1  0
  4  8  1  0
  2  9  1  0
  7 10  1  0
  8 11  1  0
 11 12  1  0
 12 13  1  0
 12 14  2  0
  5 15  1  0
 15 16  1  0
 16 17  1  0
 17 18  1  0
 18 19  1  0
 19 20  1  0
 20 21  1  0
 21 22  1  0
 22 23  2  0
 23 24  1  0
 24 25  2  0
 25 21  1  0
 23 26  1  0
 26 27  1  0
 27 28  1  0
 27 29  1  0
 28 30  1  0
 30 31  2  0
 31 32  1  0
 32 33  2  0
 33 34  1  0
 34 35  2  0
 35 30  1  0
  1 36  1  0
  2 37  1  0
  3 38  1  0
  4 39  1  0
  6 40  1  0
  7 41  1  0
  7 42  1  0
  8 43  1  0
  8 44  1  0
  9 45  1  0
 10 46  1  0
 11 47  1  0
 13 48  1  0
 13 49  1  0
 13 50  1  0
 15 51  1  0
 15 52  1  0
 16 53  1  0
 16 54  1  0
 17 55  1  0
 17 56  1  0
 18 57  1  0
 18 58  1  0
 19 59  1  0
 19 60  1  0
 20 61  1  0
 20 62  1  0
 22 63  1  0
 26 64  1  0
 26 65  1  0
 28 66  1  0
 28 67  1  0
 29 68  1  0
 29 69  1  0
 29 70  1  0
 31 71  1  0
 32 72  1  0
 33 73  1  0
 34 74  1  0
 35 75  1  0
M  END
> <Name>
6h Pingitore et al., 2022

> <Clean Energy>
76.3184051513672

> <Reference>
Pingitore et al., 2022

> <Forcefield>
MMFF

> <ForcefieldBase>
MMFF

> <ForcefieldFFML>
<?xml version="1.0" encoding="UTF-8"?>
<!DOCTYPE ffml SYSTEM "Ffml.dtd">
<ffml version="1.0">
<forcefield name="6h Pingitore et al., 2022-MMFF" derivedFrom="MMFF" base="MMFF">
<atomTypes>
<atomType
 name="C100"
 element="C"
 mass="12.011"
 annotation=""/>
<atomType
 name="N101"
 element="N"
 mass="14.007"
 annotation=""/>
<atomType
 name="O102"
 element="O"
 mass="16"
 annotation=""/>
<atomType
 name="H103"
 element="H"
 mass="1.008"
 annotation=""/>
</atomTypes>
<parameters>
</parameters>
</forcefield>
</ffml>

$$$$
6i Pingitore et al., 2022
  SciTegic07212313593D

 68 70  0  0  0  0            999 V2000
   19.7315  -37.5302   -0.3254 C   0  0  2  0  0  0
   20.1488  -38.8967    0.2679 C   0  0  2  0  0  0
   21.4908  -39.0457   -0.3770 C   0  0  1  0  0  0
   22.0626  -37.7155    0.2062 C   0  0  2  0  0  0
   21.0010  -36.7277   -0.2399 N   0  0
   22.2134  -40.2043    0.0494 O   0  0
   18.4899  -36.9662    0.3882 C   0  0
   23.4988  -37.4300   -0.2702 C   0  0
   19.1962  -39.9335    0.0076 O   0  0
   17.3946  -37.8744    0.2244 O   0  0
   24.3789  -38.4660    0.1646 N   0  0
   25.6879  -38.3058    0.0126 C   0  0
   26.6353  -39.3791    0.4583 C   0  0
   26.1244  -37.2660   -0.4941 O   0  0
   20.9064  -35.2355    0.1484 C   0  0
   22.1941  -34.3659   -0.1521 C   0  0
   21.9991  -32.8360    0.1737 C   0  0
   23.3431  -32.0627   -0.1072 C   0  0
   23.2341  -30.5018    0.1112 C   0  0
   24.6482  -29.8611   -0.1369 C   0  0
   24.6909  -28.3913   -0.0284 N   0  0
   25.8588  -27.6492   -0.0887 C   0  0
   25.4296  -26.3938   -0.0012 C   0  0
   24.0258  -26.4002    0.1091 N   0  0
   23.6285  -27.5622    0.0921 N   0  0
   26.3381  -25.1650   -0.0215 C   0  0
   25.5794  -23.9303    0.0214 O   0  0
   26.4343  -22.7861    0.0124 C   0  0
   27.7611  -22.9148   -0.0220 C   0  0
   28.6239  -21.7217   -0.0302 C   0  0
   28.0812  -20.5052   -0.0042 C   0  0
   26.6250  -20.3571    0.0328 C   0  0
   25.8412  -21.4375    0.0413 C   0  0
   19.4866  -37.6736   -1.3778 H   0  0
   20.2794  -38.7937    1.3451 H   0  0
   21.4158  -39.0026   -1.4635 H   0  0
   22.0559  -37.7746    1.2946 H   0  0
   22.3709  -40.1571    1.0864 H   0  0
   18.7049  -36.8435    1.4497 H   0  0
   18.2292  -36.0003   -0.0444 H   0  0
   23.5132  -37.3793   -1.3589 H   0  0
   23.8321  -36.4780    0.1429 H   0  0
   18.2704  -39.6726    0.4286 H   0  0
   17.1876  -37.9931   -0.7982 H   0  0
   23.9893  -39.3590    0.6068 H   0  0
   27.6597  -39.0686    0.2528 H   0  0
   26.4205  -40.3012   -0.0818 H   0  0
   26.5154  -39.5490    1.5283 H   0  0
   20.0719  -34.7989   -0.4003 H   0  0
   20.7071  -35.1800    1.2186 H   0  0
   23.0179  -34.7465    0.4517 H   0  0
   22.4410  -34.4663   -1.2090 H   0  0
   21.2076  -32.4288   -0.4554 H   0  0
   21.7261  -32.7201    1.2226 H   0  0
   24.1102  -32.4512    0.5626 H   0  0
   23.6359  -32.2460   -1.1410 H   0  0
   22.5129  -30.0824   -0.5903 H   0  0
   22.9115  -30.2955    1.1317 H   0  0
   25.3408  -30.2749    0.5960 H   0  0
   24.9732  -30.1360   -1.1403 H   0  0
   26.8835  -28.0081   -0.1849 H   0  0
   26.9999  -25.2020    0.8438 H   0  0
   26.9325  -25.1815   -0.9351 H   0  0
   28.2092  -23.9082   -0.0442 H   0  0
   29.7078  -21.8338   -0.0575 H   0  0
   28.7199  -19.6220   -0.0105 H   0  0
   26.1800  -19.3623    0.0535 H   0  0
   24.7578  -21.3217    0.0697 H   0  0
  1  2  1  0
  2  3  1  0
  3  4  1  0
  4  5  1  0
  5  1  1  0
  3  6  1  0
  1  7  1  0
  4  8  1  0
  2  9  1  0
  7 10  1  0
  8 11  1  0
 11 12  1  0
 12 13  1  0
 12 14  2  0
  5 15  1  0
 15 16  1  0
 16 17  1  0
 17 18  1  0
 18 19  1  0
 19 20  1  0
 20 21  1  0
 21 22  1  0
 22 23  2  0
 23 24  1  0
 24 25  2  0
 25 21  1  0
 23 26  1  0
 26 27  1  0
 27 28  1  0
 28 29  2  0
 29 30  1  0
 30 31  2  0
 31 32  1  0
 32 33  2  0
 33 28  1  0
  1 34  1  0
  2 35  1  0
  3 36  1  0
  4 37  1  0
  6 38  1  0
  7 39  1  0
  7 40  1  0
  8 41  1  0
  8 42  1  0
  9 43  1  0
 10 44  1  0
 11 45  1  0
 13 46  1  0
 13 47  1  0
 13 48  1  0
 15 49  1  0
 15 50  1  0
 16 51  1  0
 16 52  1  0
 17 53  1  0
 17 54  1  0
 18 55  1  0
 18 56  1  0
 19 57  1  0
 19 58  1  0
 20 59  1  0
 20 60  1  0
 22 61  1  0
 26 62  1  0
 26 63  1  0
 29 64  1  0
 30 65  1  0
 31 66  1  0
 32 67  1  0
 33 68  1  0
M  END
> <Name>
6i Pingitore et al., 2022

> <Clean Energy>
71.6508407592773

> <Reference>
Pingitore et al., 2022

> <Forcefield>
MMFF

> <ForcefieldBase>
MMFF

> <ForcefieldFFML>
<?xml version="1.0" encoding="UTF-8"?>
<!DOCTYPE ffml SYSTEM "Ffml.dtd">
<ffml version="1.0">
<forcefield name="6i Pingitore et al., 2022-MMFF" derivedFrom="MMFF" base="MMFF">
<atomTypes>
<atomType
 name="C100"
 element="C"
 mass="12.011"
 annotation=""/>
<atomType
 name="N101"
 element="N"
 mass="14.007"
 annotation=""/>
<atomType
 name="O102"
 element="O"
 mass="16"
 annotation=""/>
<atomType
 name="H103"
 element="H"
 mass="1.008"
 annotation=""/>
</atomTypes>
<parameters>
</parameters>
</forcefield>
</ffml>

$$$$
6j Pingitore et al., 2022
  SciTegic07212313593D

 75 77  0  0  0  0            999 V2000
   20.4868  -36.8469   -0.3206 C   0  0  2  0  0  0
   20.9131  -38.2146    0.2646 C   0  0  2  0  0  0
   22.2560  -38.3505   -0.3812 C   0  0  1  0  0  0
   22.8194  -37.0193    0.2091 C   0  0  2  0  0  0
   21.7515  -36.0372   -0.2305 N   0  0
   22.9869  -39.5066    0.0376 O   0  0
   19.2416  -36.2965    0.3970 C   0  0
   24.2505  -36.7170   -0.2696 C   0  0
   19.9673  -39.2561   -0.0022 O   0  0
   18.1527  -37.2114    0.2263 O   0  0
   25.1486  -37.7412    0.1517 N   0  0
   26.4536  -37.5428    0.0121 C   0  0
   27.4280  -38.5984    0.4403 C   0  0
   26.8636  -36.4803   -0.4693 O   0  0
   21.6492  -34.5461    0.1588 C   0  0
   22.9290  -33.6640   -0.1427 C   0  0
   22.7106  -32.1389    0.1856 C   0  0
   24.0338  -31.3383   -0.0976 C   0  0
   23.8847  -29.7816    0.1239 C   0  0
   25.2782  -29.1273   -0.1354 C   0  0
   25.3403  -27.6604   -0.0297 N   0  0
   26.5135  -26.9757   -0.0979 C   0  0
   26.1579  -25.7088   -0.0201 C   0  0
   24.7534  -25.6294    0.0965 N   0  0
   24.3046  -26.7802    0.0890 N   0  0
   27.1874  -24.5951   -0.0601 C   0  0
   26.7856  -23.2315   -0.0031 N   0  0
   27.6238  -22.1364    0.0204 C   0  0
   27.0409  -21.0449    0.0524 O   0  0
   29.2181  -22.0225    0.0099 C   0  0
   30.2663  -22.8940    0.0045 C   0  0
   31.5101  -22.2244   -0.0027 O   0  0
   31.1346  -20.8846   -0.0011 C   0  0
   29.8173  -20.7063    0.0062 C   0  0
   32.1484  -19.7731   -0.0065 C   0  0
   30.2970  -24.3877    0.0103 C   0  0
   31.4971  -18.5078   -0.0011 O   0  0
   20.2425  -36.9855   -1.3738 H   0  0
   21.0431  -38.1172    1.3424 H   0  0
   22.1801  -38.3016   -1.4674 H   0  0
   22.8155  -37.0841    1.2971 H   0  0
   23.1444  -39.4649    1.0749 H   0  0
   19.4557  -36.1800    1.4594 H   0  0
   18.9742  -35.3293   -0.0285 H   0  0
   24.2591  -36.6590   -1.3580 H   0  0
   24.5737  -35.7635    0.1481 H   0  0
   19.0397  -39.0038    0.4203 H   0  0
   17.9467  -37.3241   -0.7971 H   0  0
   24.7776  -38.6523    0.5725 H   0  0
   28.4444  -38.2549    0.2479 H   0  0
   27.2422  -39.5142   -0.1209 H   0  0
   27.3069  -38.7947    1.5056 H   0  0
   20.8103  -34.1151   -0.3876 H   0  0
   21.4518  -34.4932    1.2295 H   0  0
   23.7575  -34.0349    0.4608 H   0  0
   23.1771  -33.7605   -1.1997 H   0  0
   21.9090  -31.7455   -0.4395 H   0  0
   22.4398  -32.0301    1.2358 H   0  0
   24.8114  -31.7093    0.5700 H   0  0
   24.3285  -31.5133   -1.1323 H   0  0
   23.1499  -29.3768   -0.5719 H   0  0
   23.5659  -29.5816    1.1469 H   0  0
   25.9795  -29.5422    0.5886 H   0  0
   25.5910  -29.4010   -1.1430 H   0  0
   27.5201  -27.3826   -0.1949 H   0  0
   27.8553  -24.7583    0.7857 H   0  0
   27.7420  -24.7174   -0.9905 H   0  0
   25.7338  -23.0371    0.0241 H   0  0
   29.2905  -19.7521    0.0089 H   0  0
   32.7776  -19.8568    0.8796 H   0  0
   32.7663  -19.8550   -0.9007 H   0  0
   31.3317  -24.7304    0.0028 H   0  0
   29.7832  -24.7657   -0.8736 H   0  0
   29.7986  -24.7584    0.9061 H   0  0
   30.8912  -18.4218   -0.8544 H   0  0
  1  2  1  0
  2  3  1  0
  3  4  1  0
  4  5  1  0
  5  1  1  0
  3  6  1  0
  1  7  1  0
  4  8  1  0
  2  9  1  0
  7 10  1  0
  8 11  1  0
 11 12  1  0
 12 13  1  0
 12 14  2  0
  5 15  1  0
 15 16  1  0
 16 17  1  0
 17 18  1  0
 18 19  1  0
 19 20  1  0
 20 21  1  0
 21 22  1  0
 22 23  2  0
 23 24  1  0
 24 25  2  0
 25 21  1  0
 23 26  1  0
 26 27  1  0
 27 28  1  0
 28 29  2  0
 28 30  1  0
 30 31  2  0
 31 32  1  0
 32 33  1  0
 33 34  2  0
 34 30  1  0
 33 35  1  0
 31 36  1  0
 35 37  1  0
  1 38  1  0
  2 39  1  0
  3 40  1  0
  4 41  1  0
  6 42  1  0
  7 43  1  0
  7 44  1  0
  8 45  1  0
  8 46  1  0
  9 47  1  0
 10 48  1  0
 11 49  1  0
 13 50  1  0
 13 51  1  0
 13 52  1  0
 15 53  1  0
 15 54  1  0
 16 55  1  0
 16 56  1  0
 17 57  1  0
 17 58  1  0
 18 59  1  0
 18 60  1  0
 19 61  1  0
 19 62  1  0
 20 63  1  0
 20 64  1  0
 22 65  1  0
 26 66  1  0
 26 67  1  0
 27 68  1  0
 34 69  1  0
 35 70  1  0
 35 71  1  0
 36 72  1  0
 36 73  1  0
 36 74  1  0
 37 75  1  0
M  END
> <Name>
6j Pingitore et al., 2022

> <Clean Energy>
107.274429321289

> <Reference>
Pingitore et al., 2022

> <Forcefield>
MMFF

> <ForcefieldBase>
MMFF

> <ForcefieldFFML>
<?xml version="1.0" encoding="UTF-8"?>
<!DOCTYPE ffml SYSTEM "Ffml.dtd">
<ffml version="1.0">
<forcefield name="6j Pingitore et al., 2022-MMFF" derivedFrom="MMFF" base="MMFF">
<atomTypes>
<atomType
 name="C100"
 element="C"
 mass="12.011"
 annotation=""/>
<atomType
 name="N101"
 element="N"
 mass="14.007"
 annotation=""/>
<atomType
 name="O102"
 element="O"
 mass="16"
 annotation=""/>
<atomType
 name="H103"
 element="H"
 mass="1.008"
 annotation=""/>
</atomTypes>
<parameters>
</parameters>
</forcefield>
</ffml>

$$$$
6k Pingitore et al., 2022
  SciTegic07212313593D

 68 70  0  0  0  0            999 V2000
   19.8265  -37.7961   -0.3242 C   0  0  2  0  0  0
   20.2420  -39.1654    0.2668 C   0  0  2  0  0  0
   21.5833  -39.3155   -0.3784 C   0  0  1  0  0  0
   22.1582  -37.9871    0.2061 C   0  0  2  0  0  0
   21.0989  -36.9961   -0.2374 N   0  0
   22.3045  -40.4758    0.0452 O   0  0
   18.5860  -37.2332    0.3919 C   0  0
   23.5930  -37.7021   -0.2737 C   0  0
   19.2877  -40.2005    0.0048 O   0  0
   17.4898  -38.1406    0.2259 O   0  0
   24.4795  -38.7327    0.1556 N   0  0
   25.7869  -38.5518    0.0137 C   0  0
   26.7478  -39.6156    0.4519 C   0  0
   26.2103  -37.4991   -0.4777 O   0  0
   21.0126  -35.4999    0.1466 C   0  0
   22.3115  -34.6413   -0.1497 C   0  0
   22.1372  -33.1072    0.1683 C   0  0
   23.4985  -32.3555   -0.0995 C   0  0
   23.4071  -30.7923    0.1072 C   0  0
   24.8309  -30.1580   -0.1163 C   0  0
   24.8574  -28.6888   -0.0190 N   0  0
   26.0161  -27.9203   -0.0545 C   0  0
   25.5564  -26.6780    0.0096 C   0  0
   24.1514  -26.7121    0.0816 N   0  0
   23.7792  -27.8811    0.0647 N   0  0
   26.3935  -25.4460    0.0045 C   0  0
   27.7218  -25.5357   -0.0472 C   0  0
   28.5505  -24.3181   -0.0531 C   0  0
   27.9786  -23.1148   -0.0087 C   0  0
   26.5094  -23.0131    0.0477 C   0  0
   25.7587  -24.1178    0.0548 C   0  0
   28.7893  -21.9612   -0.0168 O   0  0
   27.9988  -20.7640    0.0327 C   0  0
   19.5808  -37.9370   -1.3767 H   0  0
   20.3730  -39.0646    1.3442 H   0  0
   21.5078  -39.2705   -1.4649 H   0  0
   22.1537  -38.0475    1.2945 H   0  0
   22.4626  -40.4310    1.0823 H   0  0
   18.8017  -37.1137    1.4536 H   0  0
   18.3257  -36.2658   -0.0376 H   0  0
   23.6031  -37.6515   -1.3625 H   0  0
   23.9256  -36.7491    0.1379 H   0  0
   18.3623  -39.9390    0.4265 H   0  0
   17.2823  -38.2561   -0.7969 H   0  0
   24.0980  -39.6357    0.5845 H   0  0
   27.7684  -39.2870    0.2562 H   0  0
   26.5502  -40.5343   -0.1005 H   0  0
   26.6244  -39.8001    1.5191 H   0  0
   20.1850  -35.0584   -0.4086 H   0  0
   20.8072  -35.4393    1.2153 H   0  0
   23.1278  -35.0293    0.4597 H   0  0
   22.5625  -34.7485   -1.2050 H   0  0
   21.3600  -32.6898   -0.4718 H   0  0
   21.8535  -32.9830    1.2134 H   0  0
   24.2506  -32.7503    0.5836 H   0  0
   23.8032  -32.5500   -1.1279 H   0  0
   22.7031  -30.3701   -0.6098 H   0  0
   23.0672  -30.5777    1.1204 H   0  0
   25.5077  -30.5628    0.6362 H   0  0
   25.1796  -30.4414   -1.1094 H   0  0
   27.0507  -28.2572   -0.1192 H   0  0
   28.1979  -26.5155   -0.0852 H   0  0
   29.6366  -24.4013   -0.0940 H   0  0
   26.0338  -22.0330    0.0837 H   0  0
   24.6726  -24.0362    0.0981 H   0  0
   28.6552  -19.8939    0.0250 H   0  0
   27.4016  -20.7598    0.9446 H   0  0
   27.3384  -20.7279   -0.8338 H   0  0
  1  2  1  0
  2  3  1  0
  3  4  1  0
  4  5  1  0
  5  1  1  0
  3  6  1  0
  1  7  1  0
  4  8  1  0
  2  9  1  0
  7 10  1  0
  8 11  1  0
 11 12  1  0
 12 13  1  0
 12 14  2  0
  5 15  1  0
 15 16  1  0
 16 17  1  0
 17 18  1  0
 18 19  1  0
 19 20  1  0
 20 21  1  0
 21 22  1  0
 22 23  2  0
 23 24  1  0
 24 25  2  0
 25 21  1  0
 23 26  1  0
 26 27  2  0
 27 28  1  0
 28 29  2  0
 29 30  1  0
 30 31  2  0
 31 26  1  0
 29 32  1  0
 32 33  1  0
  1 34  1  0
  2 35  1  0
  3 36  1  0
  4 37  1  0
  6 38  1  0
  7 39  1  0
  7 40  1  0
  8 41  1  0
  8 42  1  0
  9 43  1  0
 10 44  1  0
 11 45  1  0
 13 46  1  0
 13 47  1  0
 13 48  1  0
 15 49  1  0
 15 50  1  0
 16 51  1  0
 16 52  1  0
 17 53  1  0
 17 54  1  0
 18 55  1  0
 18 56  1  0
 19 57  1  0
 19 58  1  0
 20 59  1  0
 20 60  1  0
 22 61  1  0
 27 62  1  0
 28 63  1  0
 30 64  1  0
 31 65  1  0
 33 66  1  0
 33 67  1  0
 33 68  1  0
M  END
> <Name>
6k Pingitore et al., 2022

> <Clean Energy>
70.8693008422852

> <Reference>
Pingitore et al., 2022

> <Forcefield>
MMFF

> <ForcefieldBase>
MMFF

> <ForcefieldFFML>
<?xml version="1.0" encoding="UTF-8"?>
<!DOCTYPE ffml SYSTEM "Ffml.dtd">
<ffml version="1.0">
<forcefield name="6k Pingitore et al., 2022-MMFF" derivedFrom="MMFF" base="MMFF">
<atomTypes>
<atomType
 name="C100"
 element="C"
 mass="12.011"
 annotation=""/>
<atomType
 name="N101"
 element="N"
 mass="14.007"
 annotation=""/>
<atomType
 name="O102"
 element="O"
 mass="16"
 annotation=""/>
<atomType
 name="H103"
 element="H"
 mass="1.008"
 annotation=""/>
</atomTypes>
<parameters>
</parameters>
</forcefield>
</ffml>

$$$$
6l Pingitore et al., 2022
  SciTegic07212313593D

 73 75  0  0  0  0            999 V2000
   19.2313  -38.0260   -0.3167 C   0  0  2  0  0  0
   19.6602  -39.3855    0.2763 C   0  0  2  0  0  0
   21.0019  -39.5256   -0.3805 C   0  0  1  0  0  0
   21.5656  -38.1938    0.1970 C   0  0  2  0  0  0
   20.4904  -37.2153   -0.2385 N   0  0
   21.7367  -40.6775    0.0412 O   0  0
   17.9863  -37.4601    0.3898 C   0  0
   22.9989  -37.8912   -0.2827 C   0  0
   18.7136  -40.4282    0.0216 O   0  0
   16.8941  -38.3713    0.2308 O   0  0
   23.8930  -38.9165    0.1505 N   0  0
   25.2007  -38.7348    0.0089 C   0  0
   26.1617  -39.7962    0.4543 C   0  0
   25.6247  -37.6847   -0.4874 O   0  0
   20.3847  -35.7449    0.1906 C   0  0
   21.6365  -34.8586   -0.1569 C   0  0
   21.4456  -33.3573    0.2441 C   0  0
   22.7359  -32.5625   -0.1458 C   0  0
   22.6322  -31.0278    0.1611 C   0  0
   23.9721  -30.3575   -0.2758 C   0  0
   24.0144  -28.9105   -0.0837 N   0  0
   25.1070  -28.1264   -0.3820 C   0  0
   24.7244  -26.9177   -0.0660 C   0  0
   23.3988  -26.9596    0.4287 N   0  0
   23.0200  -28.1316    0.4022 N   0  0
   25.6074  -25.6743   -0.2046 C   0  0
   24.9597  -24.3446    0.2712 C   0  0
   26.0086  -23.2127    0.1207 C   0  0
   25.4147  -21.8685    0.5950 C   0  0
   24.1749  -21.5249   -0.2545 C   0  0
   23.1224  -22.6468   -0.1046 C   0  0
   23.7201  -23.9919   -0.5864 C   0  0
   18.9874  -38.1752   -1.3685 H   0  0
   19.7970  -39.2803    1.3526 H   0  0
   20.9185  -39.4835   -1.4665 H   0  0
   21.5650  -38.2548    1.2853 H   0  0
   21.9021  -40.6279    1.0770 H   0  0
   18.1987  -37.3287    1.4508 H   0  0
   17.7242  -36.4981   -0.0507 H   0  0
   23.0105  -37.8405   -1.3715 H   0  0
   23.3216  -36.9351    0.1295 H   0  0
   17.7878  -40.1725    0.4461 H   0  0
   16.6896  -38.4984   -0.7913 H   0  0
   23.5145  -39.8189    0.5832 H   0  0
   27.1825  -39.4684    0.2582 H   0  0
   25.9651  -40.7180   -0.0934 H   0  0
   26.0369  -39.9751    1.5223 H   0  0
   19.5155  -35.3105   -0.3034 H   0  0
   20.2407  -35.7176    1.2707 H   0  0
   22.5017  -35.2540    0.3752 H   0  0
   21.8140  -34.9124   -1.2310 H   0  0
   20.5870  -32.9435   -0.2847 H   0  0
   21.2811  -33.2836    1.3191 H   0  0
   23.5771  -32.9716    0.4139 H   0  0
   22.9125  -32.6910   -1.2137 H   0  0
   21.8025  -30.5942   -0.3972 H   0  0
   22.4725  -30.8740    1.2283 H   0  0
   24.7805  -30.8019    0.3048 H   0  0
   24.1276  -30.5653   -1.3345 H   0  0
   26.0683  -28.4414   -0.7878 H   0  0
   26.5121  -25.8367    0.3813 H   0  0
   25.8702  -25.5634   -1.2566 H   0  0
   24.6668  -24.4347    1.3172 H   0  0
   26.8848  -23.4516    0.7234 H   0  0
   26.2992  -23.1283   -0.9264 H   0  0
   25.1258  -21.9488    1.6429 H   0  0
   26.1610  -21.0821    0.4826 H   0  0
   23.7507  -20.5806    0.0869 H   0  0
   24.4649  -21.4360   -1.3014 H   0  0
   22.8325  -22.7338    0.9425 H   0  0
   22.2462  -22.4040   -0.7058 H   0  0
   22.9725  -24.7785   -0.4842 H   0  0
   24.0154  -23.9041   -1.6319 H   0  0
  1  2  1  0
  2  3  1  0
  3  4  1  0
  4  5  1  0
  5  1  1  0
  3  6  1  0
  1  7  1  0
  4  8  1  0
  2  9  1  0
  7 10  1  0
  8 11  1  0
 11 12  1  0
 12 13  1  0
 12 14  2  0
  5 15  1  0
 15 16  1  0
 16 17  1  0
 17 18  1  0
 18 19  1  0
 19 20  1  0
 20 21  1  0
 21 22  1  0
 22 23  2  0
 23 24  1  0
 24 25  2  0
 25 21  1  0
 23 26  1  0
 26 27  1  0
 27 28  1  0
 28 29  1  0
 29 30  1  0
 30 31  1  0
 31 32  1  0
 32 27  1  0
  1 33  1  0
  2 34  1  0
  3 35  1  0
  4 36  1  0
  6 37  1  0
  7 38  1  0
  7 39  1  0
  8 40  1  0
  8 41  1  0
  9 42  1  0
 10 43  1  0
 11 44  1  0
 13 45  1  0
 13 46  1  0
 13 47  1  0
 15 48  1  0
 15 49  1  0
 16 50  1  0
 16 51  1  0
 17 52  1  0
 17 53  1  0
 18 54  1  0
 18 55  1  0
 19 56  1  0
 19 57  1  0
 20 58  1  0
 20 59  1  0
 22 60  1  0
 26 61  1  0
 26 62  1  0
 27 63  1  0
 28 64  1  0
 28 65  1  0
 29 66  1  0
 29 67  1  0
 30 68  1  0
 30 69  1  0
 31 70  1  0
 31 71  1  0
 32 72  1  0
 32 73  1  0
M  END
> <Name>
6l Pingitore et al., 2022

> <Clean Energy>
70.6740798950195

> <Reference>
Pingitore et al., 2022

> <Forcefield>
MMFF

> <ForcefieldBase>
MMFF

> <ForcefieldFFML>
<?xml version="1.0" encoding="UTF-8"?>
<!DOCTYPE ffml SYSTEM "Ffml.dtd">
<ffml version="1.0">
<forcefield name="6l Pingitore et al., 2022-MMFF" derivedFrom="MMFF" base="MMFF">
<atomTypes>
<atomType
 name="C100"
 element="C"
 mass="12.011"
 annotation=""/>
<atomType
 name="N101"
 element="N"
 mass="14.007"
 annotation=""/>
<atomType
 name="O102"
 element="O"
 mass="16"
 annotation=""/>
<atomType
 name="H103"
 element="H"
 mass="1.008"
 annotation=""/>
</atomTypes>
<parameters>
</parameters>
</forcefield>
</ffml>

$$$$
6m Pingitore et al., 2022
  SciTegic07212313593D

 68 70  0  0  0  0            999 V2000
   21.6976  -34.2001   -0.3241 C   0  0  2  0  0  0
   22.1137  -35.5692    0.2669 C   0  0  2  0  0  0
   23.4550  -35.7188   -0.3785 C   0  0  1  0  0  0
   24.0294  -34.3901    0.2060 C   0  0  2  0  0  0
   22.9697  -33.3995   -0.2374 N   0  0
   24.1768  -36.8788    0.0451 O   0  0
   20.4568  -33.6376    0.3918 C   0  0
   25.4640  -34.1043   -0.2741 C   0  0
   21.1598  -36.6047    0.0049 O   0  0
   19.3610  -34.5454    0.2259 O   0  0
   26.3516  -35.1339    0.1551 N   0  0
   27.6587  -34.9508    0.0138 C   0  0
   28.6212  -36.0133    0.4518 C   0  0
   28.0806  -33.8971   -0.4767 O   0  0
   22.8830  -31.9034    0.1467 C   0  0
   24.1816  -31.0444   -0.1497 C   0  0
   24.0072  -29.5103    0.1685 C   0  0
   25.3683  -28.7584   -0.0997 C   0  0
   25.2766  -27.1951    0.1073 C   0  0
   26.7003  -26.5608   -0.1169 C   0  0
   26.7276  -25.0915   -0.0195 N   0  0
   27.8868  -24.3241   -0.0548 C   0  0
   27.4285  -23.0814    0.0096 C   0  0
   26.0233  -23.1140    0.0817 N   0  0
   25.6500  -24.2827    0.0645 N   0  0
   28.2679  -21.8508    0.0048 C   0  0
   29.5962  -21.9437   -0.0470 C   0  0
   30.4262  -20.7277   -0.0524 C   0  0
   29.8530  -19.5253   -0.0071 C   0  0
   28.3905  -19.4174    0.0493 C   0  0
   27.6365  -20.5198    0.0559 C   0  0
   30.7088  -18.2836   -0.0144 C   0  0
   29.8790  -17.1186    0.0266 O   0  0
   21.4519  -34.3411   -1.3767 H   0  0
   22.2447  -35.4683    1.3442 H   0  0
   23.3794  -35.6738   -1.4649 H   0  0
   24.0251  -34.4505    1.2943 H   0  0
   24.3349  -36.8339    1.0822 H   0  0
   20.6725  -33.5180    1.4536 H   0  0
   20.1962  -32.6703   -0.0377 H   0  0
   25.4738  -34.0539   -1.3629 H   0  0
   25.7959  -33.1510    0.1373 H   0  0
   20.2343  -36.3435    0.4267 H   0  0
   19.1536  -34.6610   -0.7970 H   0  0
   25.9712  -36.0378    0.5831 H   0  0
   29.6414  -35.6828    0.2567 H   0  0
   28.4254  -36.9320   -0.1013 H   0  0
   28.4977  -36.1987    1.5188 H   0  0
   22.0552  -31.4621   -0.4084 H   0  0
   22.6777  -31.8429    1.2155 H   0  0
   24.9981  -31.4323    0.4594 H   0  0
   24.4324  -31.1513   -1.2051 H   0  0
   23.2296  -29.0930   -0.4712 H   0  0
   23.7238  -29.3863    1.2137 H   0  0
   26.1206  -29.1530    0.5832 H   0  0
   25.6727  -28.9527   -1.1281 H   0  0
   24.5723  -26.7729   -0.6095 H   0  0
   24.9372  -26.9806    1.1206 H   0  0
   27.3774  -26.9659    0.6351 H   0  0
   27.0483  -26.8441   -1.1102 H   0  0
   28.9210  -24.6620   -0.1197 H   0  0
   30.0703  -22.9245   -0.0857 H   0  0
   31.5122  -20.8110   -0.0935 H   0  0
   27.9187  -18.4355    0.0858 H   0  0
   26.5507  -20.4350    0.0993 H   0  0
   31.3637  -18.2913    0.8570 H   0  0
   31.3116  -18.2659   -0.9224 H   0  0
   29.2478  -17.1083   -0.8124 H   0  0
  1  2  1  0
  2  3  1  0
  3  4  1  0
  4  5  1  0
  5  1  1  0
  3  6  1  0
  1  7  1  0
  4  8  1  0
  2  9  1  0
  7 10  1  0
  8 11  1  0
 11 12  1  0
 12 13  1  0
 12 14  2  0
  5 15  1  0
 15 16  1  0
 16 17  1  0
 17 18  1  0
 18 19  1  0
 19 20  1  0
 20 21  1  0
 21 22  1  0
 22 23  2  0
 23 24  1  0
 24 25  2  0
 25 21  1  0
 23 26  1  0
 26 27  2  0
 27 28  1  0
 28 29  2  0
 29 30  1  0
 30 31  2  0
 31 26  1  0
 29 32  1  0
 32 33  1  0
  1 34  1  0
  2 35  1  0
  3 36  1  0
  4 37  1  0
  6 38  1  0
  7 39  1  0
  7 40  1  0
  8 41  1  0
  8 42  1  0
  9 43  1  0
 10 44  1  0
 11 45  1  0
 13 46  1  0
 13 47  1  0
 13 48  1  0
 15 49  1  0
 15 50  1  0
 16 51  1  0
 16 52  1  0
 17 53  1  0
 17 54  1  0
 18 55  1  0
 18 56  1  0
 19 57  1  0
 19 58  1  0
 20 59  1  0
 20 60  1  0
 22 61  1  0
 27 62  1  0
 28 63  1  0
 30 64  1  0
 31 65  1  0
 32 66  1  0
 32 67  1  0
 33 68  1  0
M  END
> <Name>
6m Pingitore et al., 2022

> <Clean Energy>
70.4459609985352

> <Reference>
Pingitore et al., 2022

> <Forcefield>
MMFF

> <ForcefieldBase>
MMFF

> <ForcefieldFFML>
<?xml version="1.0" encoding="UTF-8"?>
<!DOCTYPE ffml SYSTEM "Ffml.dtd">
<ffml version="1.0">
<forcefield name="6m Pingitore et al., 2022-MMFF" derivedFrom="MMFF" base="MMFF">
<atomTypes>
<atomType
 name="C100"
 element="C"
 mass="12.011"
 annotation=""/>
<atomType
 name="N101"
 element="N"
 mass="14.007"
 annotation=""/>
<atomType
 name="O102"
 element="O"
 mass="16"
 annotation=""/>
<atomType
 name="H103"
 element="H"
 mass="1.008"
 annotation=""/>
</atomTypes>
<parameters>
</parameters>
</forcefield>
</ffml>

$$$$
6n Pingitore et al., 2022
  SciTegic07212313593D

 71 73  0  0  0  0            999 V2000
   22.0453  -33.7189   -0.3228 C   0  0  2  0  0  0
   22.4737  -35.0817    0.2683 C   0  0  2  0  0  0
   23.8168  -35.2193   -0.3793 C   0  0  1  0  0  0
   24.3783  -33.8863    0.2047 C   0  0  2  0  0  0
   23.3058  -32.9082   -0.2376 N   0  0
   24.5497  -36.3722    0.0438 O   0  0
   20.8002  -33.1620    0.3902 C   0  0
   25.8119  -33.5858   -0.2737 C   0  0
   21.5287  -36.1248    0.0076 O   0  0
   19.7102  -34.0756    0.2259 O   0  0
   26.7063  -34.6116    0.1559 N   0  0
   28.0133  -34.4270    0.0123 C   0  0
   28.9776  -35.4879    0.4513 C   0  0
   28.4337  -33.3742   -0.4813 O   0  0
   23.1953  -31.4238    0.1579 C   0  0
   24.4684  -30.5457   -0.1472 C   0  0
   24.2590  -29.0255    0.1863 C   0  0
   25.5919  -28.2539   -0.1045 C   0  0
   25.4874  -26.6998    0.1195 C   0  0
   26.9029  -26.0959   -0.1444 C   0  0
   27.0048  -24.6374   -0.0333 N   0  0
   28.2005  -23.9692   -0.0873 C   0  0
   27.8567  -22.6982   -0.0048 C   0  0
   26.4519  -22.6057    0.0988 N   0  0
   25.9862  -23.7459    0.0809 N   0  0
   28.8657  -21.5607   -0.0242 C   0  0
   28.2928  -20.2222    0.0082 N   0  0
   28.9832  -19.0340    0.0185 C   0  0
   28.3037  -18.0031    0.0389 O   0  0
   30.5142  -18.8346    0.0069 C   0  0
   31.4129  -19.8238   -0.0050 C   0  0
   32.8509  -19.5467   -0.0131 C   0  0
   33.2865  -18.2904   -0.0085 C   0  0
   32.3243  -17.1920    0.0046 C   0  0
   31.0147  -17.4461    0.0120 C   0  0
   21.8015  -33.8635   -1.3753 H   0  0
   22.6048  -34.9790    1.3455 H   0  0
   23.7397  -35.1749   -1.4656 H   0  0
   24.3741  -33.9475    1.2930 H   0  0
   24.7088  -36.3255    1.0806 H   0  0
   21.0140  -33.0383    1.4518 H   0  0
   20.5345  -32.1974   -0.0423 H   0  0
   25.8232  -33.5327   -1.3624 H   0  0
   26.1356  -32.6309    0.1405 H   0  0
   20.6013  -35.8712    0.4297 H   0  0
   19.5043  -34.1953   -0.7968 H   0  0
   26.3295  -35.5155    0.5871 H   0  0
   29.9972  -35.1569    0.2542 H   0  0
   28.7819  -36.4079   -0.0995 H   0  0
   28.8557  -35.6711    1.5189 H   0  0
   22.3528  -30.9935   -0.3835 H   0  0
   23.0024  -31.3749    1.2295 H   0  0
   25.3000  -30.9208    0.4493 H   0  0
   24.7090  -30.6390   -1.2062 H   0  0
   23.4595  -28.6215   -0.4347 H   0  0
   23.9942  -28.9148    1.2379 H   0  0
   26.3663  -28.6449    0.5554 H   0  0
   25.8735  -28.4333   -1.1421 H   0  0
   24.7640  -26.2710   -0.5739 H   0  0
   25.1780  -26.4908    1.1436 H   0  0
   27.5934  -26.5352    0.5755 H   0  0
   27.2030  -26.3762   -1.1541 H   0  0
   29.2020  -24.3900   -0.1774 H   0  0
   29.5143  -21.6707    0.8449 H   0  0
   29.4585  -21.6516   -0.9344 H   0  0
   27.2249  -20.1572    0.0257 H   0  0
   31.0684  -20.8579   -0.0087 H   0  0
   33.5644  -20.3707   -0.0230 H   0  0
   34.3563  -18.0815   -0.0144 H   0  0
   32.6774  -16.1608    0.0082 H   0  0
   30.3057  -16.6182    0.0220 H   0  0
  1  2  1  0
  2  3  1  0
  3  4  1  0
  4  5  1  0
  5  1  1  0
  3  6  1  0
  1  7  1  0
  4  8  1  0
  2  9  1  0
  7 10  1  0
  8 11  1  0
 11 12  1  0
 12 13  1  0
 12 14  2  0
  5 15  1  0
 15 16  1  0
 16 17  1  0
 17 18  1  0
 18 19  1  0
 19 20  1  0
 20 21  1  0
 21 22  1  0
 22 23  2  0
 23 24  1  0
 24 25  2  0
 25 21  1  0
 23 26  1  0
 26 27  1  0
 27 28  1  0
 28 29  2  0
 28 30  1  0
 30 31  2  0
 31 32  1  0
 32 33  2  0
 33 34  1  0
 34 35  2  0
 35 30  1  0
  1 36  1  0
  2 37  1  0
  3 38  1  0
  4 39  1  0
  6 40  1  0
  7 41  1  0
  7 42  1  0
  8 43  1  0
  8 44  1  0
  9 45  1  0
 10 46  1  0
 11 47  1  0
 13 48  1  0
 13 49  1  0
 13 50  1  0
 15 51  1  0
 15 52  1  0
 16 53  1  0
 16 54  1  0
 17 55  1  0
 17 56  1  0
 18 57  1  0
 18 58  1  0
 19 59  1  0
 19 60  1  0
 20 61  1  0
 20 62  1  0
 22 63  1  0
 26 64  1  0
 26 65  1  0
 27 66  1  0
 31 67  1  0
 32 68  1  0
 33 69  1  0
 34 70  1  0
 35 71  1  0
M  END
> <Name>
6n Pingitore et al., 2022

> <Clean Energy>
79.3873977661133

> <Reference>
Pingitore et al., 2022

> <Forcefield>
MMFF

> <ForcefieldBase>
MMFF

> <ForcefieldFFML>
<?xml version="1.0" encoding="UTF-8"?>
<!DOCTYPE ffml SYSTEM "Ffml.dtd">
<ffml version="1.0">
<forcefield name="6n Pingitore et al., 2022-MMFF" derivedFrom="MMFF" base="MMFF">
<atomTypes>
<atomType
 name="C100"
 element="C"
 mass="12.011"
 annotation=""/>
<atomType
 name="N101"
 element="N"
 mass="14.007"
 annotation=""/>
<atomType
 name="O102"
 element="O"
 mass="16"
 annotation=""/>
<atomType
 name="H103"
 element="H"
 mass="1.008"
 annotation=""/>
</atomTypes>
<parameters>
</parameters>
</forcefield>
</ffml>

$$$$
6o Pingitore et al., 2022
  SciTegic07212313593D

 64 66  0  0  0  0            999 V2000
   21.5606  -34.5639   -0.3246 C   0  0  2  0  0  0
   21.9782  -35.9310    0.2681 C   0  0  2  0  0  0
   23.3198  -36.0802   -0.3783 C   0  0  1  0  0  0
   23.8928  -34.7512    0.2039 C   0  0  2  0  0  0
   22.8306  -33.7630   -0.2398 N   0  0
   24.0434  -37.2386    0.0461 O   0  0
   20.3197  -33.9996    0.3901 C   0  0
   25.3277  -34.4640   -0.2773 C   0  0
   21.0252  -36.9674    0.0081 O   0  0
   19.2238  -34.9072    0.2261 O   0  0
   26.2182  -35.4903    0.1532 N   0  0
   27.5249  -35.3019    0.0141 C   0  0
   28.4909  -36.3605    0.4536 C   0  0
   27.9434  -34.2465   -0.4757 O   0  0
   22.7409  -32.2707    0.1468 C   0  0
   24.0371  -31.4156   -0.1508 C   0  0
   23.8658  -29.8866    0.1701 C   0  0
   25.2279  -29.1460   -0.1001 C   0  0
   25.1419  -27.5878    0.1073 C   0  0
   26.5646  -26.9621   -0.1192 C   0  0
   26.5864  -25.4990   -0.0219 N   0  0
   27.7384  -24.7239   -0.0584 C   0  0
   27.2747  -23.4905    0.0090 C   0  0
   25.8683  -23.5272    0.0846 N   0  0
   25.5040  -24.6987    0.0661 N   0  0
   28.0939  -22.2523    0.0059 C   0  0
   29.4281  -22.3317   -0.0500 C   0  0
   30.2394  -21.1042   -0.0524 C   0  0
   29.6493  -19.9113   -0.0005 C   0  0
   28.1864  -19.8231    0.0597 C   0  0
   27.4494  -20.9344    0.0634 C   0  0
   30.3917  -18.7905   -0.0027 F   0  0
   21.3149  -34.7069   -1.3769 H   0  0
   22.1099  -35.8284    1.3452 H   0  0
   23.2434  -36.0366   -1.4648 H   0  0
   23.8892  -34.8105    1.2923 H   0  0
   24.2024  -37.1921    1.0830 H   0  0
   20.5354  -33.8778    1.4516 H   0  0
   20.0594  -33.0332   -0.0416 H   0  0
   25.3369  -34.4160   -1.3662 H   0  0
   25.6577  -33.5091    0.1318 H   0  0
   20.0997  -36.7064    0.4300 H   0  0
   19.0163  -35.0250   -0.7965 H   0  0
   25.8406  -36.3956    0.5806 H   0  0
   29.5101  -36.0260    0.2601 H   0  0
   28.2997  -37.2800   -0.0997 H   0  0
   28.3665  -36.5463    1.5204 H   0  0
   21.9121  -31.8291   -0.4066 H   0  0
   22.5371  -32.2118    1.2159 H   0  0
   24.8546  -31.8059    0.4554 H   0  0
   24.2849  -31.5208   -1.2070 H   0  0
   23.0889  -29.4651   -0.4677 H   0  0
   23.5848  -29.7629    1.2160 H   0  0
   25.9794  -29.5446    0.5815 H   0  0
   25.5297  -29.3417   -1.1291 H   0  0
   24.4377  -27.1624   -0.6078 H   0  0
   24.8053  -27.3723    1.1215 H   0  0
   27.2424  -27.3671    0.6323 H   0  0
   26.9114  -27.2462   -1.1127 H   0  0
   28.7748  -25.0546   -0.1263 H   0  0
   29.9145  -23.3061   -0.0938 H   0  0
   31.3264  -21.1713   -0.0968 H   0  0
   27.7012  -18.8479    0.1015 H   0  0
   26.3627  -20.8639    0.1094 H   0  0
  1  2  1  0
  2  3  1  0
  3  4  1  0
  4  5  1  0
  5  1  1  0
  3  6  1  0
  1  7  1  0
  4  8  1  0
  2  9  1  0
  7 10  1  0
  8 11  1  0
 11 12  1  0
 12 13  1  0
 12 14  2  0
  5 15  1  0
 15 16  1  0
 16 17  1  0
 17 18  1  0
 18 19  1  0
 19 20  1  0
 20 21  1  0
 21 22  1  0
 22 23  2  0
 23 24  1  0
 24 25  2  0
 25 21  1  0
 23 26  1  0
 26 27  2  0
 27 28  1  0
 28 29  2  0
 29 30  1  0
 30 31  2  0
 31 26  1  0
 29 32  1  0
  1 33  1  0
  2 34  1  0
  3 35  1  0
  4 36  1  0
  6 37  1  0
  7 38  1  0
  7 39  1  0
  8 40  1  0
  8 41  1  0
  9 42  1  0
 10 43  1  0
 11 44  1  0
 13 45  1  0
 13 46  1  0
 13 47  1  0
 15 48  1  0
 15 49  1  0
 16 50  1  0
 16 51  1  0
 17 52  1  0
 17 53  1  0
 18 54  1  0
 18 55  1  0
 19 56  1  0
 19 57  1  0
 20 58  1  0
 20 59  1  0
 22 60  1  0
 27 61  1  0
 28 62  1  0
 30 63  1  0
 31 64  1  0
M  END
> <Name>
6o Pingitore et al., 2022

> <Clean Energy>
70.2944107055664

> <Reference>
Pingitore et al., 2022

> <Forcefield>
MMFF

> <ForcefieldBase>
MMFF

> <ForcefieldFFML>
<?xml version="1.0" encoding="UTF-8"?>
<!DOCTYPE ffml SYSTEM "Ffml.dtd">
<ffml version="1.0">
<forcefield name="6o Pingitore et al., 2022-MMFF" derivedFrom="MMFF" base="MMFF">
<atomTypes>
<atomType
 name="C100"
 element="C"
 mass="12.011"
 annotation=""/>
<atomType
 name="N101"
 element="N"
 mass="14.007"
 annotation=""/>
<atomType
 name="O102"
 element="O"
 mass="16"
 annotation=""/>
<atomType
 name="F103"
 element="F"
 mass="18.998"
 annotation=""/>
<atomType
 name="H104"
 element="H"
 mass="1.008"
 annotation=""/>
</atomTypes>
<parameters>
</parameters>
</forcefield>
</ffml>

$$$$
6p Pingitore et al., 2022
  SciTegic07212313593D

 64 66  0  0  0  0            999 V2000
   21.6615  -34.3161   -0.3244 C   0  0  2  0  0  0
   22.0785  -35.6846    0.2671 C   0  0  2  0  0  0
   23.4199  -35.8336   -0.3784 C   0  0  1  0  0  0
   23.9935  -34.5046    0.2055 C   0  0  2  0  0  0
   22.9329  -33.5151   -0.2381 N   0  0
   24.1426  -36.9929    0.0455 O   0  0
   20.4205  -33.7538    0.3914 C   0  0
   25.4280  -34.2181   -0.2751 C   0  0
   21.1252  -36.7207    0.0057 O   0  0
   19.3250  -34.6619    0.2259 O   0  0
   26.3172  -35.2460    0.1543 N   0  0
   27.6240  -35.0599    0.0139 C   0  0
   28.5887  -36.1202    0.4521 C   0  0
   28.0438  -34.0051   -0.4761 O   0  0
   22.8451  -32.0195    0.1457 C   0  0
   24.1442  -31.1625   -0.1489 C   0  0
   23.9715  -29.6292    0.1674 C   0  0
   25.3356  -28.8832   -0.0961 C   0  0
   25.2471  -27.3207    0.1068 C   0  0
   26.6735  -26.6912   -0.1084 C   0  0
   26.6986  -25.2230   -0.0165 N   0  0
   27.8570  -24.4535   -0.0420 C   0  0
   27.3940  -23.2118    0.0083 C   0  0
   25.9887  -23.2477    0.0630 N   0  0
   25.6186  -24.4170    0.0491 N   0  0
   28.2266  -21.9784    0.0062 C   0  0
   29.5563  -22.0614   -0.0213 C   0  0
   30.3756  -20.8369   -0.0228 C   0  0
   29.7880  -19.6417    0.0004 C   0  0
   28.3284  -19.5448    0.0281 C   0  0
   27.5831  -20.6527    0.0325 C   0  0
   27.7406  -18.3379    0.0496 F   0  0
   31.7145  -20.9210   -0.0463 F   0  0
   21.4159  -34.4577   -1.3769 H   0  0
   22.2096  -35.5832    1.3444 H   0  0
   23.3442  -35.7890   -1.4648 H   0  0
   23.9895  -34.5646    1.2938 H   0  0
   24.3009  -36.9475    1.0826 H   0  0
   20.6362  -33.6336    1.4530 H   0  0
   20.1595  -32.7868   -0.0387 H   0  0
   25.4374  -34.1686   -1.3640 H   0  0
   25.7590  -33.2641    0.1353 H   0  0
   20.1996  -36.4599    0.4274 H   0  0
   19.1176  -34.7782   -0.7969 H   0  0
   25.9385  -36.1508    0.5819 H   0  0
   29.6082  -35.7873    0.2577 H   0  0
   28.3953  -37.0392   -0.1012 H   0  0
   28.4650  -36.3061    1.5190 H   0  0
   22.0184  -31.5781   -0.4110 H   0  0
   22.6379  -31.9587    1.2141 H   0  0
   24.9592  -31.5508    0.4620 H   0  0
   24.3967  -31.2706   -1.2037 H   0  0
   23.1978  -29.2102   -0.4759 H   0  0
   23.6842  -29.5035    1.2113 H   0  0
   26.0835  -29.2786    0.5912 H   0  0
   25.6442  -29.0808   -1.1227 H   0  0
   24.5490  -26.8979   -0.6157 H   0  0
   24.9012  -27.1031    1.1173 H   0  0
   27.3440  -27.0937    0.6508 H   0  0
   27.0294  -26.9788   -1.0977 H   0  0
   28.8928  -24.7892   -0.0913 H   0  0
   30.0394  -23.0383   -0.0427 H   0  0
   30.3945  -18.7360   -0.0013 H   0  0
   26.4960  -20.5765    0.0555 H   0  0
  1  2  1  0
  2  3  1  0
  3  4  1  0
  4  5  1  0
  5  1  1  0
  3  6  1  0
  1  7  1  0
  4  8  1  0
  2  9  1  0
  7 10  1  0
  8 11  1  0
 11 12  1  0
 12 13  1  0
 12 14  2  0
  5 15  1  0
 15 16  1  0
 16 17  1  0
 17 18  1  0
 18 19  1  0
 19 20  1  0
 20 21  1  0
 21 22  1  0
 22 23  2  0
 23 24  1  0
 24 25  2  0
 25 21  1  0
 23 26  1  0
 26 27  2  0
 27 28  1  0
 28 29  2  0
 29 30  1  0
 30 31  2  0
 31 26  1  0
 30 32  1  0
 28 33  1  0
  1 34  1  0
  2 35  1  0
  3 36  1  0
  4 37  1  0
  6 38  1  0
  7 39  1  0
  7 40  1  0
  8 41  1  0
  8 42  1  0
  9 43  1  0
 10 44  1  0
 11 45  1  0
 13 46  1  0
 13 47  1  0
 13 48  1  0
 15 49  1  0
 15 50  1  0
 16 51  1  0
 16 52  1  0
 17 53  1  0
 17 54  1  0
 18 55  1  0
 18 56  1  0
 19 57  1  0
 19 58  1  0
 20 59  1  0
 20 60  1  0
 22 61  1  0
 27 62  1  0
 29 63  1  0
 31 64  1  0
M  END
> <Name>
6p Pingitore et al., 2022

> <Clean Energy>
70.4696426391602

> <Reference>
Pingitore et al., 2022

> <Forcefield>
MMFF

> <ForcefieldBase>
MMFF

> <ForcefieldFFML>
<?xml version="1.0" encoding="UTF-8"?>
<!DOCTYPE ffml SYSTEM "Ffml.dtd">
<ffml version="1.0">
<forcefield name="6p Pingitore et al., 2022-MMFF" derivedFrom="MMFF" base="MMFF">
<atomTypes>
<atomType
 name="C100"
 element="C"
 mass="12.011"
 annotation=""/>
<atomType
 name="N101"
 element="N"
 mass="14.007"
 annotation=""/>
<atomType
 name="O102"
 element="O"
 mass="16"
 annotation=""/>
<atomType
 name="F103"
 element="F"
 mass="18.998"
 annotation=""/>
<atomType
 name="H104"
 element="H"
 mass="1.008"
 annotation=""/>
</atomTypes>
<parameters>
</parameters>
</forcefield>
</ffml>

$$$$
6q Pingitore et al., 2022
  SciTegic07212313593D

 70 72  0  0  0  0            999 V2000
   22.3368  -32.8457   -0.3224 C   0  0  2  0  0  0
   22.7465  -34.2218    0.2636 C   0  0  2  0  0  0
   24.0863  -34.3750   -0.3789 C   0  0  1  0  0  0
   24.6680  -33.0482    0.2115 C   0  0  2  0  0  0
   23.6180  -32.0477   -0.2310 N   0  0
   24.8009  -35.5412    0.0421 O   0  0
   21.0976  -32.2883    0.3996 C   0  0
   26.1017  -32.7704   -0.2668 C   0  0
   21.7886  -35.2535   -0.0036 O   0  0
   20.0013  -33.1965    0.2283 O   0  0
   26.9789  -33.8108    0.1581 N   0  0
   28.2872  -33.6427    0.0133 C   0  0
   29.2387  -34.7170    0.4464 C   0  0
   28.7194  -32.5931   -0.4766 O   0  0
   23.5474  -30.5358    0.1400 C   0  0
   24.8603  -29.6721   -0.1570 C   0  0
   24.6931  -28.1174    0.1460 C   0  0
   26.0620  -27.3447   -0.1186 C   0  0
   25.9716  -25.7616    0.0778 C   0  0
   27.4055  -25.1053   -0.1358 C   0  0
   27.4489  -23.6157   -0.0438 N   0  0
   28.6254  -22.8503   -0.0532 C   0  0
   28.1815  -21.5986   -0.0057 C   0  0
   26.7693  -21.6223    0.0310 N   0  0
   26.3814  -22.7892    0.0100 N   0  0
   29.0410  -20.3532    0.0078 C   0  0
   30.3744  -20.4491    0.0000 C   0  0
   31.2073  -19.2232    0.0155 C   0  0
   30.6323  -18.0263    0.0339 C   0  0
   29.1854  -17.9051    0.0402 C   0  0
   28.4167  -19.0022    0.0298 C   0  0
   28.5781  -16.5270    0.0596 C   0  0
   32.7070  -19.3056    0.0152 C   0  0
   29.3286  -15.7026    0.8779 F   0  0
   27.2564  -16.5699    0.4429 F   0  0
   28.6656  -16.0022   -1.2144 F   0  0
   33.2404  -18.2078    0.6657 F   0  0
   33.1276  -20.4936    0.5700 F   0  0
   33.1369  -19.2612   -1.2945 F   0  0
   22.0898  -32.9801   -1.3755 H   0  0
   22.8766  -34.1262    1.3415 H   0  0
   24.0126  -34.3263   -1.4654 H   0  0
   24.6625  -33.1112    1.2997 H   0  0
   24.9568  -35.5012    1.0797 H   0  0
   21.3149  -32.1761    1.4618 H   0  0
   20.8360  -31.3181   -0.0227 H   0  0
   26.1122  -32.7144   -1.3553 H   0  0
   26.4415  -31.8222    0.1496 H   0  0
   20.8637  -34.9909    0.4185 H   0  0
   19.7926  -33.3049   -0.7950 H   0  0
   26.5895  -34.7109    0.5859 H   0  0
   30.2620  -34.3980    0.2489 H   0  0
   29.0306  -35.6323   -0.1077 H   0  0
   29.1162  -34.9030    1.5135 H   0  0
   22.7249  -30.0939   -0.4224 H   0  0
   23.3378  -30.4652    1.2073 H   0  0
   25.6711  -30.0568    0.4617 H   0  0
   25.1180  -29.7906   -1.2094 H   0  0
   23.9190  -27.7072   -0.5027 H   0  0
   24.4025  -27.9847    1.1881 H   0  0
   26.8115  -27.7320    0.5716 H   0  0
   26.3739  -27.5442   -1.1438 H   0  0
   25.2729  -25.3470   -0.6488 H   0  0
   25.6207  -25.5423    1.0862 H   0  0
   28.0760  -25.5084    0.6232 H   0  0
   27.7620  -25.3914   -1.1253 H   0  0
   29.6573  -23.1994   -0.0906 H   0  0
   30.8495  -21.4299   -0.0178 H   0  0
   31.2507  -17.1288    0.0443 H   0  0
   27.3310  -18.9052    0.0374 H   0  0
  1  2  1  0
  2  3  1  0
  3  4  1  0
  4  5  1  0
  5  1  1  0
  3  6  1  0
  1  7  1  0
  4  8  1  0
  2  9  1  0
  7 10  1  0
  8 11  1  0
 11 12  1  0
 12 13  1  0
 12 14  2  0
  5 15  1  0
 15 16  1  0
 16 17  1  0
 17 18  1  0
 18 19  1  0
 19 20  1  0
 20 21  1  0
 21 22  1  0
 22 23  2  0
 23 24  1  0
 24 25  2  0
 25 21  1  0
 23 26  1  0
 26 27  2  0
 27 28  1  0
 28 29  2  0
 29 30  1  0
 30 31  2  0
 31 26  1  0
 30 32  1  0
 28 33  1  0
 32 34  1  0
 32 35  1  0
 32 36  1  0
 33 37  1  0
 33 38  1  0
 33 39  1  0
  1 40  1  0
  2 41  1  0
  3 42  1  0
  4 43  1  0
  6 44  1  0
  7 45  1  0
  7 46  1  0
  8 47  1  0
  8 48  1  0
  9 49  1  0
 10 50  1  0
 11 51  1  0
 13 52  1  0
 13 53  1  0
 13 54  1  0
 15 55  1  0
 15 56  1  0
 16 57  1  0
 16 58  1  0
 17 59  1  0
 17 60  1  0
 18 61  1  0
 18 62  1  0
 19 63  1  0
 19 64  1  0
 20 65  1  0
 20 66  1  0
 22 67  1  0
 27 68  1  0
 29 69  1  0
 31 70  1  0
M  END
> <Name>
6q Pingitore et al., 2022

> <Clean Energy>
96.3531875610352

> <Reference>
Pingitore et al., 2022

> <Forcefield>
MMFF

> <ForcefieldBase>
MMFF

> <ForcefieldFFML>
<?xml version="1.0" encoding="UTF-8"?>
<!DOCTYPE ffml SYSTEM "Ffml.dtd">
<ffml version="1.0">
<forcefield name="6q Pingitore et al., 2022-MMFF" derivedFrom="MMFF" base="MMFF">
<atomTypes>
<atomType
 name="C100"
 element="C"
 mass="12.011"
 annotation=""/>
<atomType
 name="N101"
 element="N"
 mass="14.007"
 annotation=""/>
<atomType
 name="O102"
 element="O"
 mass="16"
 annotation=""/>
<atomType
 name="F103"
 element="F"
 mass="18.998"
 annotation=""/>
<atomType
 name="H104"
 element="H"
 mass="1.008"
 annotation=""/>
</atomTypes>
<parameters>
</parameters>
</forcefield>
</ffml>

$$$$
6r Pingitore et al., 2022
  SciTegic07212313593D

 64 66  0  0  0  0            999 V2000
   21.7458  -34.3259   -0.3241 C   0  0  2  0  0  0
   22.1617  -35.6950    0.2672 C   0  0  2  0  0  0
   23.5029  -35.8452   -0.3784 C   0  0  1  0  0  0
   24.0779  -34.5169    0.2054 C   0  0  2  0  0  0
   23.0184  -33.5260   -0.2378 N   0  0
   24.2247  -37.0052    0.0453 O   0  0
   20.5053  -33.7631    0.3920 C   0  0
   25.5125  -34.2319   -0.2759 C   0  0
   21.2076  -36.7303    0.0056 O   0  0
   19.4093  -34.6707    0.2263 O   0  0
   26.4019  -35.2593    0.1532 N   0  0
   27.7084  -35.0709    0.0140 C   0  0
   28.6745  -36.1300    0.4517 C   0  0
   28.1267  -34.0147   -0.4743 O   0  0
   22.9339  -32.0295    0.1454 C   0  0
   24.2363  -31.1767   -0.1502 C   0  0
   24.0734  -29.6425    0.1667 C   0  0
   25.4431  -28.9059   -0.0984 C   0  0
   25.3665  -27.3429    0.1052 C   0  0
   26.7967  -26.7204   -0.1123 C   0  0
   26.8246  -25.2527   -0.0190 N   0  0
   27.9834  -24.4799   -0.0470 C   0  0
   27.5179  -23.2404    0.0101 C   0  0
   26.1125  -23.2796    0.0709 N   0  0
   25.7446  -24.4490    0.0542 N   0  0
   28.3397  -21.9992    0.0102 C   0  0
   29.6719  -22.0639   -0.0258 C   0  0
   30.4734  -20.8243   -0.0238 C   0  0
   29.8680  -19.6380    0.0114 C   0  0
   28.4057  -19.5662    0.0495 C   0  0
   27.6796  -20.6852    0.0501 C   0  0
   31.8135  -20.8873   -0.0568 F   0  0
   30.5985  -18.5096    0.0130 F   0  0
   21.4999  -34.4670   -1.3766 H   0  0
   22.2930  -35.5939    1.3445 H   0  0
   23.4271  -35.8005   -1.4648 H   0  0
   24.0743  -34.5770    1.2938 H   0  0
   24.3831  -36.9601    1.0823 H   0  0
   20.7212  -33.6434    1.4537 H   0  0
   20.2448  -32.7958   -0.0376 H   0  0
   25.5212  -34.1830   -1.3647 H   0  0
   25.8441  -33.2778    0.1338 H   0  0
   20.2823  -36.4689    0.4274 H   0  0
   19.2017  -34.7864   -0.7965 H   0  0
   26.0238  -36.1651    0.5793 H   0  0
   29.6936  -35.7952    0.2584 H   0  0
   28.4832  -37.0487   -0.1029 H   0  0
   28.5504  -36.3174    1.5183 H   0  0
   22.1084  -31.5861   -0.4115 H   0  0
   22.7269  -31.9674    1.2138 H   0  0
   25.0503  -31.5694    0.4591 H   0  0
   24.4865  -31.2854   -1.2055 H   0  0
   23.3019  -29.2183   -0.4759 H   0  0
   23.7880  -29.5150    1.2109 H   0  0
   26.1890  -29.3070    0.5878 H   0  0
   25.7490  -29.1054   -1.1254 H   0  0
   24.6697  -26.9154   -0.6158 H   0  0
   25.0238  -27.1237    1.1164 H   0  0
   27.4669  -27.1258    0.6457 H   0  0
   27.1501  -27.0087   -1.1023 H   0  0
   29.0197  -24.8133   -0.1024 H   0  0
   30.1691  -23.0334   -0.0566 H   0  0
   27.9095  -18.5961    0.0773 H   0  0
   26.5917  -20.6256    0.0804 H   0  0
  1  2  1  0
  2  3  1  0
  3  4  1  0
  4  5  1  0
  5  1  1  0
  3  6  1  0
  1  7  1  0
  4  8  1  0
  2  9  1  0
  7 10  1  0
  8 11  1  0
 11 12  1  0
 12 13  1  0
 12 14  2  0
  5 15  1  0
 15 16  1  0
 16 17  1  0
 17 18  1  0
 18 19  1  0
 19 20  1  0
 20 21  1  0
 21 22  1  0
 22 23  2  0
 23 24  1  0
 24 25  2  0
 25 21  1  0
 23 26  1  0
 26 27  2  0
 27 28  1  0
 28 29  2  0
 29 30  1  0
 30 31  2  0
 31 26  1  0
 28 32  1  0
 29 33  1  0
  1 34  1  0
  2 35  1  0
  3 36  1  0
  4 37  1  0
  6 38  1  0
  7 39  1  0
  7 40  1  0
  8 41  1  0
  8 42  1  0
  9 43  1  0
 10 44  1  0
 11 45  1  0
 13 46  1  0
 13 47  1  0
 13 48  1  0
 15 49  1  0
 15 50  1  0
 16 51  1  0
 16 52  1  0
 17 53  1  0
 17 54  1  0
 18 55  1  0
 18 56  1  0
 19 57  1  0
 19 58  1  0
 20 59  1  0
 20 60  1  0
 22 61  1  0
 27 62  1  0
 30 63  1  0
 31 64  1  0
M  END
> <Name>
6r Pingitore et al., 2022

> <Clean Energy>
70.4258499145508

> <Reference>
Pingitore et al., 2022

> <Forcefield>
MMFF

> <ForcefieldBase>
MMFF

> <ForcefieldFFML>
<?xml version="1.0" encoding="UTF-8"?>
<!DOCTYPE ffml SYSTEM "Ffml.dtd">
<ffml version="1.0">
<forcefield name="6r Pingitore et al., 2022-MMFF" derivedFrom="MMFF" base="MMFF">
<atomTypes>
<atomType
 name="C100"
 element="C"
 mass="12.011"
 annotation=""/>
<atomType
 name="N101"
 element="N"
 mass="14.007"
 annotation=""/>
<atomType
 name="O102"
 element="O"
 mass="16"
 annotation=""/>
<atomType
 name="F103"
 element="F"
 mass="18.998"
 annotation=""/>
<atomType
 name="H104"
 element="H"
 mass="1.008"
 annotation=""/>
</atomTypes>
<parameters>
</parameters>
</forcefield>
</ffml>

$$$$
6s Pingitore et al., 2022
  SciTegic07212313593D

 72 74  0  0  0  0            999 V2000
   21.9469  -33.7185   -0.3239 C   0  0  2  0  0  0
   22.3601  -35.0901    0.2657 C   0  0  2  0  0  0
   23.7010  -35.2416   -0.3783 C   0  0  1  0  0  0
   24.2783  -33.9139    0.2082 C   0  0  2  0  0  0
   23.2223  -32.9195   -0.2353 N   0  0
   24.4198  -36.4039    0.0447 O   0  0
   20.7068  -33.1571    0.3938 C   0  0
   25.7129  -33.6317   -0.2711 C   0  0
   21.4045  -36.1239    0.0019 O   0  0
   19.6104  -34.0645    0.2260 O   0  0
   26.5963  -34.6654    0.1572 N   0  0
   27.9039  -34.4888    0.0139 C   0  0
   28.8618  -35.5558    0.4508 C   0  0
   28.3301  -33.4375   -0.4779 O   0  0
   23.1414  -31.4183    0.1448 C   0  0
   24.4463  -30.5595   -0.1482 C   0  0
   24.2758  -29.0186    0.1642 C   0  0
   25.6425  -28.2636   -0.0963 C   0  0
   25.5539  -26.6938    0.1051 C   0  0
   26.9839  -26.0559   -0.1062 C   0  0
   27.0172  -24.5807   -0.0150 N   0  0
   28.1817  -23.8119   -0.0380 C   0  0
   27.7293  -22.5697    0.0081 C   0  0
   26.3193  -22.5971    0.0583 N   0  0
   25.9424  -23.7661    0.0454 N   0  0
   28.5674  -21.3290    0.0065 C   0  0
   29.9025  -21.4186   -0.0145 C   0  0
   30.7302  -20.1955   -0.0153 C   0  0
   30.1437  -18.9988    0.0011 C   0  0
   28.6790  -18.8905    0.0210 C   0  0
   27.9328  -19.9979    0.0254 C   0  0
   32.1365  -20.3055   -0.0316 O   0  0
   28.0585  -17.6274    0.0353 O   0  0
   29.0325  -16.5684    0.0251 C   0  0
   32.7688  -19.0108   -0.0261 C   0  0
   21.7010  -33.8573   -1.3767 H   0  0
   22.4906  -34.9909    1.3433 H   0  0
   23.6263  -35.1954   -1.4648 H   0  0
   24.2733  -33.9750    1.2964 H   0  0
   24.5769  -36.3606    1.0820 H   0  0
   20.9228  -33.0399    1.4557 H   0  0
   20.4464  -32.1887   -0.0335 H   0  0
   25.7233  -33.5797   -1.3598 H   0  0
   26.0479  -32.6802    0.1418 H   0  0
   20.4792  -35.8618    0.4235 H   0  0
   19.4027  -34.1778   -0.7971 H   0  0
   26.2122  -35.5671    0.5864 H   0  0
   29.8833  -35.2305    0.2540 H   0  0
   28.6606  -36.4738   -0.1014 H   0  0
   28.7391  -35.7400    1.5182 H   0  0
   22.3172  -30.9757   -0.4147 H   0  0
   22.9319  -31.3545    1.2125 H   0  0
   25.2587  -30.9474    0.4663 H   0  0
   24.7021  -30.6707   -1.2019 H   0  0
   23.5034  -28.6019   -0.4823 H   0  0
   23.9852  -28.8911    1.2070 H   0  0
   26.3893  -28.6569    0.5933 H   0  0
   25.9543  -28.4614   -1.1219 H   0  0
   24.8574  -26.2729   -0.6202 H   0  0
   25.2041  -26.4759    1.1142 H   0  0
   27.6520  -26.4590    0.6549 H   0  0
   27.3423  -26.3440   -1.0944 H   0  0
   29.2160  -24.1532   -0.0831 H   0  0
   30.3807  -22.3979   -0.0311 H   0  0
   30.7542  -18.0958   -0.0003 H   0  0
   26.8459  -19.9173    0.0431 H   0  0
   28.5227  -15.6051    0.0365 H   0  0
   29.6436  -16.6448   -0.8743 H   0  0
   29.6700  -16.6520    0.9053 H   0  0
   33.8516  -19.1347   -0.0390 H   0  0
   32.4765  -18.4670    0.8722 H   0  0
   32.4572  -18.4500   -0.9074 H   0  0
  1  2  1  0
  2  3  1  0
  3  4  1  0
  4  5  1  0
  5  1  1  0
  3  6  1  0
  1  7  1  0
  4  8  1  0
  2  9  1  0
  7 10  1  0
  8 11  1  0
 11 12  1  0
 12 13  1  0
 12 14  2  0
  5 15  1  0
 15 16  1  0
 16 17  1  0
 17 18  1  0
 18 19  1  0
 19 20  1  0
 20 21  1  0
 21 22  1  0
 22 23  2  0
 23 24  1  0
 24 25  2  0
 25 21  1  0
 23 26  1  0
 26 27  2  0
 27 28  1  0
 28 29  2  0
 29 30  1  0
 30 31  2  0
 31 26  1  0
 28 32  1  0
 30 33  1  0
 33 34  1  0
 32 35  1  0
  1 36  1  0
  2 37  1  0
  3 38  1  0
  4 39  1  0
  6 40  1  0
  7 41  1  0
  7 42  1  0
  8 43  1  0
  8 44  1  0
  9 45  1  0
 10 46  1  0
 11 47  1  0
 13 48  1  0
 13 49  1  0
 13 50  1  0
 15 51  1  0
 15 52  1  0
 16 53  1  0
 16 54  1  0
 17 55  1  0
 17 56  1  0
 18 57  1  0
 18 58  1  0
 19 59  1  0
 19 60  1  0
 20 61  1  0
 20 62  1  0
 22 63  1  0
 27 64  1  0
 29 65  1  0
 31 66  1  0
 34 67  1  0
 34 68  1  0
 34 69  1  0
 35 70  1  0
 35 71  1  0
 35 72  1  0
M  END
> <Name>
6s Pingitore et al., 2022

> <Clean Energy>
71.5439529418945

> <IC50>
108

> <Ki>
221nM

> <Reference>
Pingitore et al., 2022

> <Forcefield>
MMFF

> <ForcefieldBase>
MMFF

> <ForcefieldFFML>
<?xml version="1.0" encoding="UTF-8"?>
<!DOCTYPE ffml SYSTEM "Ffml.dtd">
<ffml version="1.0">
<forcefield name="6s Pingitore et al., 2022-MMFF" derivedFrom="MMFF" base="MMFF">
<atomTypes>
<atomType
 name="C100"
 element="C"
 mass="12.011"
 annotation=""/>
<atomType
 name="N101"
 element="N"
 mass="14.007"
 annotation=""/>
<atomType
 name="O102"
 element="O"
 mass="16"
 annotation=""/>
<atomType
 name="H103"
 element="H"
 mass="1.008"
 annotation=""/>
</atomTypes>
<parameters>
</parameters>
</forcefield>
</ffml>

$$$$
6t Pingitore et al., 2022
  SciTegic07212313593D

 61 62  0  0  0  0            999 V2000
   20.9092  -35.8328   -0.3277 C   0  0  2  0  0  0
   21.3414  -37.1865    0.2757 C   0  0  2  0  0  0
   22.6851  -37.3272   -0.3755 C   0  0  1  0  0  0
   23.2433  -35.9913    0.1944 C   0  0  2  0  0  0
   22.1638  -35.0214   -0.2525 N   0  0
   23.4229  -38.4732    0.0555 O   0  0
   19.6633  -35.2647    0.3764 C   0  0
   24.6786  -35.6901   -0.2886 C   0  0
   20.3982  -38.2328    0.0265 O   0  0
   18.5721  -36.1772    0.2233 O   0  0
   25.5811  -36.7032    0.1522 N   0  0
   26.8870  -36.5047    0.0137 C   0  0
   27.8608  -37.5513    0.4657 C   0  0
   27.2986  -35.4509   -0.4854 O   0  0
   22.0464  -33.5497    0.1522 C   0  0
   23.3150  -32.6882   -0.1549 C   0  0
   23.1247  -31.1842    0.1884 C   0  0
   24.4669  -30.4540   -0.1061 C   0  0
   24.3786  -28.9172    0.1194 C   0  0
   25.7864  -28.3167   -0.1479 C   0  0
   25.8116  -26.8726   -0.0363 N   0  0
   26.9570  -26.1156   -0.1223 C   0  0
   26.5018  -24.8778   -0.0139 C   0  0
   25.1061  -24.9067    0.1336 N   0  0
   24.7355  -26.0735    0.1178 N   0  0
   27.3599  -23.6408   -0.0489 C   0  0
   26.5439  -22.4717    0.0663 O   0  0
   27.3758  -21.3069    0.0248 C   0  0
   20.6661  -35.9893   -1.3786 H   0  0
   21.4747  -37.0730    1.3516 H   0  0
   22.6051  -37.2924   -1.4620 H   0  0
   23.2413  -36.0441    1.2832 H   0  0
   23.5854  -38.4162    1.0913 H   0  0
   19.8761  -35.1274    1.4366 H   0  0
   19.4000  -34.3054   -0.0690 H   0  0
   24.6888  -35.6511   -1.3779 H   0  0
   24.9968  -34.7280    0.1129 H   0  0
   19.4710  -37.9765    0.4475 H   0  0
   18.3669  -36.3100   -0.7979 H   0  0
   25.2119  -37.6082    0.5874 H   0  0
   28.8776  -37.2104    0.2712 H   0  0
   27.6782  -38.4776   -0.0791 H   0  0
   27.7354  -37.7277    1.5340 H   0  0
   21.2026  -33.1157   -0.3842 H   0  0
   21.8571  -33.5059    1.2248 H   0  0
   24.1482  -33.0756    0.4314 H   0  0
   23.5455  -32.7757   -1.2167 H   0  0
   22.3303  -30.7615   -0.4267 H   0  0
   22.8667  -31.0745    1.2417 H   0  0
   25.2354  -30.8590    0.5522 H   0  0
   24.7431  -30.6383   -1.1443 H   0  0
   23.6534  -28.4826   -0.5685 H   0  0
   24.0759  -28.7099    1.1459 H   0  0
   26.4861  -28.7340    0.5762 H   0  0
   26.0972  -28.5933   -1.1554 H   0  0
   27.9860  -26.4524   -0.2487 H   0  0
   28.0671  -23.6695    0.7800 H   0  0
   27.9057  -23.6076   -0.9918 H   0  0
   26.7565  -20.4142    0.1124 H   0  0
   27.9184  -21.2807   -0.9202 H   0  0
   28.0866  -21.3378    0.8507 H   0  0
  1  2  1  0
  2  3  1  0
  3  4  1  0
  4  5  1  0
  5  1  1  0
  3  6  1  0
  1  7  1  0
  4  8  1  0
  2  9  1  0
  7 10  1  0
  8 11  1  0
 11 12  1  0
 12 13  1  0
 12 14  2  0
  5 15  1  0
 15 16  1  0
 16 17  1  0
 17 18  1  0
 18 19  1  0
 19 20  1  0
 20 21  1  0
 21 22  1  0
 22 23  2  0
 23 24  1  0
 24 25  2  0
 25 21  1  0
 23 26  1  0
 27 26  1  0
 27 28  1  0
  1 29  1  0
  2 30  1  0
  3 31  1  0
  4 32  1  0
  6 33  1  0
  7 34  1  0
  7 35  1  0
  8 36  1  0
  8 37  1  0
  9 38  1  0
 10 39  1  0
 11 40  1  0
 13 41  1  0
 13 42  1  0
 13 43  1  0
 15 44  1  0
 15 45  1  0
 16 46  1  0
 16 47  1  0
 17 48  1  0
 17 49  1  0
 18 50  1  0
 18 51  1  0
 19 52  1  0
 19 53  1  0
 20 54  1  0
 20 55  1  0
 22 56  1  0
 26 57  1  0
 26 58  1  0
 28 59  1  0
 28 60  1  0
 28 61  1  0
M  END
> <Name>
6t Pingitore et al., 2022

> <Clean Energy>
69.9341354370117

> <IC50>
246

> <Ki>
92.3nM

> <Reference>
Pingitore et al., 2022

> <Forcefield>
MMFF

> <ForcefieldBase>
MMFF

> <ForcefieldFFML>
<?xml version="1.0" encoding="UTF-8"?>
<!DOCTYPE ffml SYSTEM "Ffml.dtd">
<ffml version="1.0">
<forcefield name="6t Pingitore et al., 2022-MMFF" derivedFrom="MMFF" base="MMFF">
<atomTypes>
<atomType
 name="C100"
 element="C"
 mass="12.011"
 annotation=""/>
<atomType
 name="N101"
 element="N"
 mass="14.007"
 annotation=""/>
<atomType
 name="O102"
 element="O"
 mass="16"
 annotation=""/>
<atomType
 name="H103"
 element="H"
 mass="1.008"
 annotation=""/>
</atomTypes>
<parameters>
</parameters>
</forcefield>
</ffml>

$$$$
7b Pingitore et al., 2022
  SciTegic07212313593D

 70 71  0  0  0  0            999 V2000
   22.0866  -34.2926   -0.3266 C   0  0  2  0  0  0
   22.4885  -35.6597    0.2741 C   0  0  2  0  0  0
   23.8264  -35.8312   -0.3783 C   0  0  1  0  0  0
   24.4176  -34.5074    0.1918 C   0  0  2  0  0  0
   23.3668  -33.5083   -0.2531 N   0  0
   24.5371  -36.9952    0.0514 O   0  0
   20.8548  -33.7037    0.3844 C   0  0
   25.8555  -34.2394   -0.2931 C   0  0
   21.5210  -36.6850    0.0252 O   0  0
   19.7459  -34.5971    0.2313 O   0  0
   26.7372  -35.2683    0.1466 N   0  0
   28.0454  -35.0861    0.0152 C   0  0
   29.0042  -36.1460    0.4660 C   0  0
   28.4716  -34.0341   -0.4763 O   0  0
   23.3008  -32.0223    0.1479 C   0  0
   24.6021  -31.1866   -0.1686 C   0  0
   24.4672  -29.6695    0.1943 C   0  0
   25.8261  -28.9393   -0.1092 C   0  0
   25.7465  -27.3960    0.1623 C   0  0
   27.1393  -26.7237   -0.1153 C   0  0
   27.0827  -25.2713    0.0613 N   0  0
   28.2735  -24.4832   -0.0031 C   0  0
   28.2042  -23.0658    0.0874 N   0  0
   29.6597  -25.1793   -0.1778 S   0  0
   29.4166  -22.2525    0.0338 C   0  0
   29.0364  -20.7396    0.0528 C   0  0
   30.2714  -19.8366    0.0238 C   0  0
   31.4914  -20.3428    0.0047 C   0  0
   32.6662  -19.4510   -0.0197 C   0  0
   32.4963  -18.1277   -0.0219 C   0  0
   31.1482  -17.5637   -0.0009 C   0  0
   30.0827  -18.3724    0.0210 C   0  0
   21.8365  -34.4410   -1.3770 H   0  0
   22.6262  -35.5512    1.3499 H   0  0
   23.7457  -35.7942   -1.4646 H   0  0
   24.4162  -34.5601    1.2805 H   0  0
   24.7018  -36.9428    1.0871 H   0  0
   21.0739  -33.5743    1.4443 H   0  0
   20.6074  -32.7381   -0.0565 H   0  0
   25.8642  -34.2027   -1.3824 H   0  0
   26.1947  -33.2835    0.1059 H   0  0
   20.6006  -36.4087    0.4485 H   0  0
   19.5350  -34.7222   -0.7897 H   0  0
   26.3524  -36.1705    0.5743 H   0  0
   30.0259  -35.8164    0.2776 H   0  0
   28.8130  -37.0674   -0.0841 H   0  0
   28.8721  -36.3262    1.5329 H   0  0
   22.4675  -31.5651   -0.3857 H   0  0
   23.1182  -31.9698    1.2212 H   0  0
   25.4302  -31.6065    0.4024 H   0  0
   24.8158  -31.2697   -1.2342 H   0  0
   23.6724  -29.2219   -0.4025 H   0  0
   24.2282  -29.5684    1.2529 H   0  0
   26.6028  -29.3669    0.5247 H   0  0
   26.0829  -29.0980   -1.1566 H   0  0
   24.9962  -26.9535   -0.4931 H   0  0
   25.4663  -27.2274    1.2021 H   0  0
   27.8745  -27.1354    0.5762 H   0  0
   27.4401  -26.9437   -1.1396 H   0  0
   26.1411  -24.7954    0.2402 H   0  0
   27.2525  -22.5891    0.1960 H   0  0
   30.0432  -22.4793    0.8964 H   0  0
   29.9632  -22.4770   -0.8821 H   0  0
   28.4204  -20.5209   -0.8194 H   0  0
   28.4696  -20.5310    0.9602 H   0  0
   31.6306  -21.4239    0.0070 H   0  0
   33.6713  -19.8724   -0.0359 H   0  0
   33.3631  -17.4671   -0.0394 H   0  0
   31.0107  -16.4824   -0.0030 H   0  0
   29.0775  -17.9512    0.0367 H   0  0
  1  2  1  0
  2  3  1  0
  3  4  1  0
  4  5  1  0
  5  1  1  0
  3  6  1  0
  1  7  1  0
  4  8  1  0
  2  9  1  0
  7 10  1  0
  8 11  1  0
 11 12  1  0
 12 13  1  0
 12 14  2  0
  5 15  1  0
 15 16  1  0
 16 17  1  0
 17 18  1  0
 18 19  1  0
 19 20  1  0
 20 21  1  0
 21 22  1  0
 22 23  1  0
 22 24  2  0
 23 25  1  0
 25 26  1  0
 26 27  1  0
 27 28  2  0
 28 29  1  0
 29 30  2  0
 30 31  1  0
 31 32  2  0
 32 27  1  0
  1 33  1  0
  2 34  1  0
  3 35  1  0
  4 36  1  0
  6 37  1  0
  7 38  1  0
  7 39  1  0
  8 40  1  0
  8 41  1  0
  9 42  1  0
 10 43  1  0
 11 44  1  0
 13 45  1  0
 13 46  1  0
 13 47  1  0
 15 48  1  0
 15 49  1  0
 16 50  1  0
 16 51  1  0
 17 52  1  0
 17 53  1  0
 18 54  1  0
 18 55  1  0
 19 56  1  0
 19 57  1  0
 20 58  1  0
 20 59  1  0
 21 60  1  0
 23 61  1  0
 25 62  1  0
 25 63  1  0
 26 64  1  0
 26 65  1  0
 28 66  1  0
 29 67  1  0
 30 68  1  0
 31 69  1  0
 32 70  1  0
M  END
> <Name>
7b Pingitore et al., 2022

> <Clean Energy>
51.977783203125

> <Reference>
Pingitore et al., 2022

> <Forcefield>
MMFF

> <ForcefieldBase>
MMFF

> <ForcefieldFFML>
<?xml version="1.0" encoding="UTF-8"?>
<!DOCTYPE ffml SYSTEM "Ffml.dtd">
<ffml version="1.0">
<forcefield name="7b Pingitore et al., 2022-MMFF" derivedFrom="MMFF" base="MMFF">
<atomTypes>
<atomType
 name="C100"
 element="C"
 mass="12.011"
 annotation=""/>
<atomType
 name="N101"
 element="N"
 mass="14.007"
 annotation=""/>
<atomType
 name="O102"
 element="O"
 mass="16"
 annotation=""/>
<atomType
 name="S103"
 element="S"
 mass="32.066"
 annotation=""/>
<atomType
 name="H104"
 element="H"
 mass="1.008"
 annotation=""/>
</atomTypes>
<parameters>
</parameters>
</forcefield>
</ffml>

$$$$
7a Pingitore et al., 2022
  SciTegic07212313593D

 64 65  0  0  0  0            999 V2000
   21.7015  -35.2683   -0.3260 C   0  0  2  0  0  0
   22.1097  -36.6315    0.2759 C   0  0  2  0  0  0
   23.4484  -36.7981   -0.3797 C   0  0  1  0  0  0
   24.0341  -35.4728    0.1875 C   0  0  2  0  0  0
   22.9751  -34.4806   -0.2556 N   0  0
   24.1657  -37.9579    0.0492 O   0  0
   20.4683  -34.6791    0.3830 C   0  0
   25.4710  -35.1957   -0.3009 C   0  0
   21.1459  -37.6602    0.0296 O   0  0
   19.3609  -35.5737    0.2326 O   0  0
   26.3660  -36.2132    0.1371 N   0  0
   27.6718  -36.0049    0.0158 C   0  0
   28.6481  -37.0499    0.4640 C   0  0
   28.0808  -34.9409   -0.4639 O   0  0
   22.8985  -33.0032    0.1524 C   0  0
   24.1906  -32.1694   -0.1659 C   0  0
   24.0540  -30.6637    0.2026 C   0  0
   25.4110  -29.9515   -0.1032 C   0  0
   25.3405  -28.4181    0.1676 C   0  0
   26.7350  -27.7759   -0.1126 C   0  0
   26.6968  -26.3333    0.0571 N   0  0
   27.8936  -25.5783   -0.0020 C   0  0
   27.8135  -24.1370    0.0656 N   0  0
   29.2485  -26.3478   -0.1611 S   0  0
   28.9165  -23.2057    0.0376 C   0  0
   30.1909  -23.5961   -0.0006 C   0  0
   31.2766  -22.6074   -0.0262 C   0  0
   30.9949  -21.3063   -0.0113 C   0  0
   29.6015  -20.8655    0.0309 C   0  0
   28.6161  -21.7637    0.0546 C   0  0
   21.4515  -35.4199   -1.3760 H   0  0
   22.2488  -36.5210    1.3513 H   0  0
   23.3653  -36.7622   -1.4659 H   0  0
   24.0353  -35.5250    1.2762 H   0  0
   24.3328  -37.9038    1.0844 H   0  0
   20.6871  -34.5463    1.4425 H   0  0
   20.2199  -33.7151   -0.0609 H   0  0
   25.4764  -35.1617   -1.3903 H   0  0
   25.8025  -34.2356    0.0948 H   0  0
   20.2251  -37.3866    0.4537 H   0  0
   19.1502  -35.7021   -0.7880 H   0  0
   25.9944  -37.1255    0.5548 H   0  0
   29.6644  -36.6990    0.2849 H   0  0
   28.4782  -37.9701   -0.0949 H   0  0
   28.5128  -37.2415    1.5285 H   0  0
   22.0612  -32.5475   -0.3762 H   0  0
   22.7197  -32.9560    1.2266 H   0  0
   25.0224  -32.5902    0.3990 H   0  0
   24.3991  -32.2474   -1.2329 H   0  0
   23.2598  -30.2109   -0.3910 H   0  0
   23.8179  -30.5648    1.2621 H   0  0
   26.1859  -30.3850    0.5291 H   0  0
   25.6643  -30.1123   -1.1511 H   0  0
   24.5948  -27.9675   -0.4874 H   0  0
   25.0633  -28.2453    1.2075 H   0  0
   27.4643  -28.1954    0.5804 H   0  0
   27.0318  -28.0050   -1.1360 H   0  0
   25.7625  -25.8403    0.2272 H   0  0
   26.8333  -23.7155    0.1448 H   0  0
   30.4293  -24.6597   -0.0131 H   0  0
   32.3143  -22.9392   -0.0573 H   0  0
   31.8003  -20.5722   -0.0305 H   0  0
   29.3678  -19.8009    0.0430 H   0  0
   27.5795  -21.4279    0.0869 H   0  0
  1  2  1  0
  2  3  1  0
  3  4  1  0
  4  5  1  0
  5  1  1  0
  3  6  1  0
  1  7  1  0
  4  8  1  0
  2  9  1  0
  7 10  1  0
  8 11  1  0
 11 12  1  0
 12 13  1  0
 12 14  2  0
  5 15  1  0
 15 16  1  0
 16 17  1  0
 17 18  1  0
 18 19  1  0
 19 20  1  0
 20 21  1  0
 21 22  1  0
 22 23  1  0
 22 24  2  0
 23 25  1  0
 25 26  2  0
 26 27  1  0
 27 28  2  0
 28 29  1  0
 29 30  2  0
 30 25  1  0
  1 31  1  0
  2 32  1  0
  3 33  1  0
  4 34  1  0
  6 35  1  0
  7 36  1  0
  7 37  1  0
  8 38  1  0
  8 39  1  0
  9 40  1  0
 10 41  1  0
 11 42  1  0
 13 43  1  0
 13 44  1  0
 13 45  1  0
 15 46  1  0
 15 47  1  0
 16 48  1  0
 16 49  1  0
 17 50  1  0
 17 51  1  0
 18 52  1  0
 18 53  1  0
 19 54  1  0
 19 55  1  0
 20 56  1  0
 20 57  1  0
 21 58  1  0
 23 59  1  0
 26 60  1  0
 27 61  1  0
 28 62  1  0
 29 63  1  0
 30 64  1  0
M  END
> <Name>
7a Pingitore et al., 2022

> <Clean Energy>
54.7294616699219

> <Reference>
Pingitore et al., 2022

> <Forcefield>
MMFF

> <ForcefieldBase>
MMFF

> <ForcefieldFFML>
<?xml version="1.0" encoding="UTF-8"?>
<!DOCTYPE ffml SYSTEM "Ffml.dtd">
<ffml version="1.0">
<forcefield name="7a Pingitore et al., 2022-MMFF" derivedFrom="MMFF" base="MMFF">
<atomTypes>
<atomType
 name="C100"
 element="C"
 mass="12.011"
 annotation=""/>
<atomType
 name="N101"
 element="N"
 mass="14.007"
 annotation=""/>
<atomType
 name="O102"
 element="O"
 mass="16"
 annotation=""/>
<atomType
 name="S103"
 element="S"
 mass="32.066"
 annotation=""/>
<atomType
 name="H104"
 element="H"
 mass="1.008"
 annotation=""/>
</atomTypes>
<parameters>
</parameters>
</forcefield>
</ffml>

$$$$
7c Pingitore et al., 2022
  SciTegic07212313593D

 67 68  0  0  0  0            999 V2000
   24.3871  -30.8908   -0.3254 C   0  0  2  0  0  0
   24.7928  -32.2565    0.2742 C   0  0  2  0  0  0
   26.1313  -32.4242   -0.3799 C   0  0  1  0  0  0
   26.7191  -31.1002    0.1901 C   0  0  2  0  0  0
   25.6633  -30.1049   -0.2526 N   0  0
   26.8461  -33.5861    0.0478 O   0  0
   23.1546  -30.3031    0.3856 C   0  0
   28.1561  -30.8254   -0.2971 C   0  0
   23.8275  -33.2835    0.0252 O   0  0
   22.0466  -31.1969    0.2327 O   0  0
   29.0488  -31.8451    0.1394 N   0  0
   30.3547  -31.6397    0.0159 C   0  0
   31.3296  -32.6867    0.4623 C   0  0
   30.7650  -30.5765   -0.4644 O   0  0
   25.5916  -28.6237    0.1517 C   0  0
   26.8886  -27.7913   -0.1654 C   0  0
   26.7561  -26.2811    0.1994 C   0  0
   28.1167  -25.5680   -0.1041 C   0  0
   28.0489  -24.0305    0.1638 C   0  0
   29.4467  -23.3872   -0.1137 C   0  0
   29.4137  -21.9406    0.0533 N   0  0
   30.6164  -21.1885   -0.0038 C   0  0
   30.5457  -19.7439    0.0620 N   0  0
   31.9678  -21.9650   -0.1576 S   0  0
   31.6581  -18.8188    0.0381 C   0  0
   32.9296  -19.2191    0.0046 C   0  0
   34.0245  -18.2392   -0.0160 C   0  0
   33.7539  -16.9356   -0.0011 C   0  0
   32.3638  -16.4828    0.0357 C   0  0
   31.3702  -17.3728    0.0548 C   0  0
   34.8742  -15.9332   -0.0215 C   0  0
   24.1369  -31.0395   -1.3758 H   0  0
   24.9311  -32.1484    1.3499 H   0  0
   26.0494  -32.3864   -1.4662 H   0  0
   26.7196  -31.1539    1.2788 H   0  0
   27.0120  -33.5342    1.0833 H   0  0
   23.3737  -30.1736    1.4455 H   0  0
   22.9065  -29.3376   -0.0552 H   0  0
   28.1618  -30.7897   -1.3865 H   0  0
   28.4894  -29.8666    0.1001 H   0  0
   22.9069  -33.0095    0.4493 H   0  0
   21.8357  -31.3222   -0.7883 H   0  0
   28.6756  -32.7566    0.5575 H   0  0
   32.3463  -32.3380    0.2815 H   0  0
   31.1568  -33.6066   -0.0964 H   0  0
   31.1957  -32.8782    1.5270 H   0  0
   24.7568  -28.1670   -0.3800 H   0  0
   25.4103  -28.5735    1.2254 H   0  0
   27.7178  -28.2130    0.4027 H   0  0
   27.0996  -27.8724   -1.2317 H   0  0
   25.9642  -25.8283   -0.3972 H   0  0
   26.5174  -26.1795    1.2580 H   0  0
   28.8894  -26.0012    0.5311 H   0  0
   28.3726  -25.7310   -1.1510 H   0  0
   27.3055  -23.5803   -0.4941 H   0  0
   27.7690  -23.8554    1.2026 H   0  0
   30.1735  -23.8069    0.5817 H   0  0
   29.7457  -23.6184   -1.1361 H   0  0
   28.4808  -21.4436    0.2194 H   0  0
   29.5681  -19.3154    0.1361 H   0  0
   33.1593  -20.2845   -0.0077 H   0  0
   35.0595  -18.5799   -0.0434 H   0  0
   32.1391  -15.4162    0.0475 H   0  0
   30.3365  -17.0280    0.0831 H   0  0
   34.4606  -14.9249   -0.0051 H   0  0
   35.4665  -16.0677   -0.9266 H   0  0
   35.5090  -16.0792    0.8526 H   0  0
  1  2  1  0
  2  3  1  0
  3  4  1  0
  4  5  1  0
  5  1  1  0
  3  6  1  0
  1  7  1  0
  4  8  1  0
  2  9  1  0
  7 10  1  0
  8 11  1  0
 11 12  1  0
 12 13  1  0
 12 14  2  0
  5 15  1  0
 15 16  1  0
 16 17  1  0
 17 18  1  0
 18 19  1  0
 19 20  1  0
 20 21  1  0
 21 22  1  0
 22 23  1  0
 22 24  2  0
 23 25  1  0
 25 26  2  0
 26 27  1  0
 27 28  2  0
 28 29  1  0
 29 30  2  0
 30 25  1  0
 28 31  1  0
  1 32  1  0
  2 33  1  0
  3 34  1  0
  4 35  1  0
  6 36  1  0
  7 37  1  0
  7 38  1  0
  8 39  1  0
  8 40  1  0
  9 41  1  0
 10 42  1  0
 11 43  1  0
 13 44  1  0
 13 45  1  0
 13 46  1  0
 15 47  1  0
 15 48  1  0
 16 49  1  0
 16 50  1  0
 17 51  1  0
 17 52  1  0
 18 53  1  0
 18 54  1  0
 19 55  1  0
 19 56  1  0
 20 57  1  0
 20 58  1  0
 21 59  1  0
 23 60  1  0
 26 61  1  0
 27 62  1  0
 29 63  1  0
 30 64  1  0
 31 65  1  0
 31 66  1  0
 31 67  1  0
M  END
> <Name>
7c Pingitore et al., 2022

> <Clean Energy>
54.7259330749512

> <Reference>
Pingitore et al., 2022

> <Forcefield>
MMFF

> <ForcefieldBase>
MMFF

> <ForcefieldFFML>
<?xml version="1.0" encoding="UTF-8"?>
<!DOCTYPE ffml SYSTEM "Ffml.dtd">
<ffml version="1.0">
<forcefield name="7c Pingitore et al., 2022-MMFF" derivedFrom="MMFF" base="MMFF">
<atomTypes>
<atomType
 name="C100"
 element="C"
 mass="12.011"
 annotation=""/>
<atomType
 name="N101"
 element="N"
 mass="14.007"
 annotation=""/>
<atomType
 name="O102"
 element="O"
 mass="16"
 annotation=""/>
<atomType
 name="S103"
 element="S"
 mass="32.066"
 annotation=""/>
<atomType
 name="H104"
 element="H"
 mass="1.008"
 annotation=""/>
</atomTypes>
<parameters>
</parameters>
</forcefield>
</ffml>

$$$$
7d Pingitore et al., 2022
  SciTegic07212313593D

 70 71  0  0  0  0            999 V2000
   25.0541  -33.3555   -0.3225 C   0  0  2  0  0  0
   25.4501  -34.7311    0.2694 C   0  0  2  0  0  0
   26.7869  -34.9037   -0.3799 C   0  0  1  0  0  0
   27.3845  -33.5836    0.1998 C   0  0  2  0  0  0
   26.3422  -32.5750   -0.2416 N   0  0
   27.4913  -36.0743    0.0440 O   0  0
   23.8240  -32.7740    0.3965 C   0  0
   28.8208  -33.3202   -0.2845 C   0  0
   24.4790  -35.7521    0.0120 O   0  0
   22.7146  -33.6669    0.2347 O   0  0
   29.6987  -34.3551    0.1462 N   0  0
   31.0067  -34.1721    0.0158 C   0  0
   31.9656  -35.2364    0.4557 C   0  0
   31.4321  -33.1156   -0.4657 O   0  0
   26.2916  -31.0749    0.1449 C   0  0
   27.6088  -30.2419   -0.1703 C   0  0
   27.4881  -28.7063    0.1724 C   0  0
   28.8615  -27.9757   -0.1261 C   0  0
   28.7992  -26.4142    0.1233 C   0  0
   30.2105  -25.7508   -0.1462 C   0  0
   30.1941  -24.2812    0.0064 N   0  0
   31.4166  -23.5241   -0.0383 C   0  0
   31.3824  -22.0612    0.0192 N   0  0
   32.7658  -24.3199   -0.1656 S   0  0
   32.5240  -21.1455    0.0202 C   0  0
   33.7946  -21.5904    0.0196 C   0  0
   34.9146  -20.6343    0.0253 C   0  0
   34.6906  -19.3321    0.0310 C   0  0
   33.3264  -18.8240    0.0319 C   0  0
   32.2980  -19.6764    0.0275 C   0  0
   33.1116  -17.3327    0.0403 C   0  0
   36.3281  -21.1370    0.0280 C   0  0
   37.1248  -20.2807    0.7643 F   0  0
   36.3837  -22.4308    0.4941 F   0  0
   36.7912  -21.1099   -1.2708 F   0  0
   33.7792  -16.7928    1.1225 F   0  0
   31.7706  -17.0174    0.0789 F   0  0
   33.7094  -16.7928   -1.0817 F   0  0
   24.8028  -33.4942   -1.3741 H   0  0
   25.5862  -34.6309    1.3462 H   0  0
   26.7086  -34.8598   -1.4662 H   0  0
   27.3826  -33.6418    1.2882 H   0  0
   27.6534  -36.0298    1.0804 H   0  0
   24.0446  -32.6561    1.4575 H   0  0
   23.5760  -31.8036   -0.0335 H   0  0
   28.8279  -33.2763   -1.3736 H   0  0
   29.1651  -32.3686    0.1203 H   0  0
   23.5591  -35.4758    0.4362 H   0  0
   22.5025  -33.7809   -0.7873 H   0  0
   29.3124  -35.2605    0.5656 H   0  0
   32.9872  -34.9051    0.2697 H   0  0
   31.7739  -36.1524   -0.1032 H   0  0
   31.8342  -35.4269    1.5209 H   0  0
   25.4659  -30.6158   -0.3987 H   0  0
   26.1022  -31.0106    1.2164 H   0  0
   28.4283  -30.6609    0.4135 H   0  0
   27.8315  -30.3403   -1.2328 H   0  0
   26.7023  -28.2609   -0.4377 H   0  0
   27.2395  -28.5904    1.2273 H   0  0
   29.6284  -28.4003    0.5216 H   0  0
   29.1280  -28.1502   -1.1685 H   0  0
   28.0621  -25.9734   -0.5479 H   0  0
   28.5073  -26.2280    1.1569 H   0  0
   30.9300  -26.1655    0.5598 H   0  0
   30.5190  -25.9912   -1.1636 H   0  0
   29.2629  -23.7746    0.1516 H   0  0
   30.4129  -21.6109    0.0658 H   0  0
   33.9950  -22.6618    0.0149 H   0  0
   35.5296  -18.6364    0.0349 H   0  0
   31.2790  -19.2893    0.0292 H   0  0
  1  2  1  0
  2  3  1  0
  3  4  1  0
  4  5  1  0
  5  1  1  0
  3  6  1  0
  1  7  1  0
  4  8  1  0
  2  9  1  0
  7 10  1  0
  8 11  1  0
 11 12  1  0
 12 13  1  0
 12 14  2  0
  5 15  1  0
 15 16  1  0
 16 17  1  0
 17 18  1  0
 18 19  1  0
 19 20  1  0
 20 21  1  0
 21 22  1  0
 22 23  1  0
 22 24  2  0
 23 25  1  0
 25 26  2  0
 26 27  1  0
 27 28  2  0
 28 29  1  0
 29 30  2  0
 30 25  1  0
 29 31  1  0
 27 32  1  0
 32 33  1  0
 32 34  1  0
 32 35  1  0
 31 36  1  0
 31 37  1  0
 31 38  1  0
  1 39  1  0
  2 40  1  0
  3 41  1  0
  4 42  1  0
  6 43  1  0
  7 44  1  0
  7 45  1  0
  8 46  1  0
  8 47  1  0
  9 48  1  0
 10 49  1  0
 11 50  1  0
 13 51  1  0
 13 52  1  0
 13 53  1  0
 15 54  1  0
 15 55  1  0
 16 56  1  0
 16 57  1  0
 17 58  1  0
 17 59  1  0
 18 60  1  0
 18 61  1  0
 19 62  1  0
 19 63  1  0
 20 64  1  0
 20 65  1  0
 21 66  1  0
 23 67  1  0
 26 68  1  0
 28 69  1  0
 30 70  1  0
M  END
> <Name>
7d Pingitore et al., 2022

> <Clean Energy>
79.9839935302734

> <Reference>
Pingitore et al., 2022

> <Forcefield>
MMFF

> <ForcefieldBase>
MMFF

> <ForcefieldFFML>
<?xml version="1.0" encoding="UTF-8"?>
<!DOCTYPE ffml SYSTEM "Ffml.dtd">
<ffml version="1.0">
<forcefield name="7d Pingitore et al., 2022-MMFF" derivedFrom="MMFF" base="MMFF">
<atomTypes>
<atomType
 name="C100"
 element="C"
 mass="12.011"
 annotation=""/>
<atomType
 name="N101"
 element="N"
 mass="14.007"
 annotation=""/>
<atomType
 name="O102"
 element="O"
 mass="16"
 annotation=""/>
<atomType
 name="S103"
 element="S"
 mass="32.066"
 annotation=""/>
<atomType
 name="F104"
 element="F"
 mass="18.998"
 annotation=""/>
<atomType
 name="H105"
 element="H"
 mass="1.008"
 annotation=""/>
</atomTypes>
<parameters>
</parameters>
</forcefield>
</ffml>

$$$$
7e Pingitore et al., 2022
  SciTegic07212313593D

 70 71  0  0  0  0            999 V2000
   23.8822  -35.3359   -0.3256 C   0  0  2  0  0  0
   24.2910  -36.6950    0.2807 C   0  0  2  0  0  0
   25.6285  -36.8647   -0.3818 C   0  0  1  0  0  0
   26.2152  -35.5395    0.1780 C   0  0  2  0  0  0
   25.1540  -34.5468   -0.2629 N   0  0
   26.3471  -38.0230    0.0491 O   0  0
   22.6487  -34.7382    0.3756 C   0  0
   27.6529  -35.2618   -0.3096 C   0  0
   23.3261  -37.7239    0.0408 O   0  0
   21.5402  -35.6321    0.2319 O   0  0
   28.5443  -36.2818    0.1340 N   0  0
   29.8525  -36.0814    0.0122 C   0  0
   30.8205  -37.1319    0.4682 C   0  0
   30.2688  -35.0247   -0.4723 O   0  0
   25.0797  -33.0822    0.1772 C   0  0
   26.3539  -32.2383   -0.1707 C   0  0
   26.2375  -30.7527    0.2699 C   0  0
   27.5690  -30.0265   -0.0952 C   0  0
   27.5360  -28.5185    0.2885 C   0  0
   28.8996  -27.8647   -0.0885 C   0  0
   28.9114  -26.4477    0.2220 N   0  0
   30.0398  -25.6620   -0.1097 C   0  0
   30.0155  -24.2548    0.1258 N   0  0
   31.2707  -26.3512   -0.7908 S   0  0
   31.1040  -23.3561   -0.2570 C   0  0
   32.4198  -23.6963    0.4919 C   0  0
   33.5387  -22.7259    0.0459 C   0  0
   33.1310  -21.2771    0.3861 C   0  0
   31.8227  -20.9251   -0.3519 C   0  0
   30.6998  -21.8986    0.0786 C   0  0
   23.6326  -35.4940   -1.3748 H   0  0
   24.4343  -36.5804    1.3552 H   0  0
   25.5408  -36.8329   -1.4678 H   0  0
   26.2178  -35.5895    1.2668 H   0  0
   26.5189  -37.9643    1.0833 H   0  0
   22.8658  -34.5957    1.4342 H   0  0
   22.4025  -33.7781   -0.0779 H   0  0
   27.6606  -35.2298   -1.3991 H   0  0
   27.9846  -34.3013    0.0849 H   0  0
   22.4064  -37.4480    0.4658 H   0  0
   21.3310  -35.7699   -0.7878 H   0  0
   28.1680  -37.1900    0.5563 H   0  0
   31.8397  -36.7900    0.2887 H   0  0
   30.6443  -38.0540   -0.0857 H   0  0
   30.6820  -37.3164    1.5336 H   0  0
   24.2215  -32.6220   -0.3124 H   0  0
   24.9387  -33.0574    1.2578 H   0  0
   27.2128  -32.6832    0.3317 H   0  0
   26.5070  -32.2694   -1.2495 H   0  0
   25.4050  -30.2786   -0.2499 H   0  0
   26.0723  -30.6997    1.3460 H   0  0
   28.3892  -30.5071    0.4380 H   0  0
   27.7333  -30.1125   -1.1693 H   0  0
   26.7313  -28.0218   -0.2536 H   0  0
   27.3679  -28.4187    1.3608 H   0  0
   29.6953  -28.3568    0.4708 H   0  0
   29.0718  -27.9949   -1.1569 H   0  0
   28.0675  -25.9974    0.7015 H   0  0
   29.1568  -23.8355    0.6073 H   0  0
   31.2737  -23.4400   -1.3305 H   0  0
   32.2614  -23.5976    1.5658 H   0  0
   32.7144  -24.7199    0.2601 H   0  0
   34.4635  -22.9744    0.5666 H   0  0
   33.6909  -22.8171   -1.0295 H   0  0
   32.9774  -21.1858    1.4614 H   0  0
   33.9203  -20.5942    0.0720 H   0  0
   31.5311  -19.9044   -0.1044 H   0  0
   31.9805  -21.0078   -1.4273 H   0  0
   30.5357  -21.8079    1.1523 H   0  0
   29.7815  -21.6476   -0.4523 H   0  0
  1  2  1  0
  2  3  1  0
  3  4  1  0
  4  5  1  0
  5  1  1  0
  3  6  1  0
  1  7  1  0
  4  8  1  0
  2  9  1  0
  7 10  1  0
  8 11  1  0
 11 12  1  0
 12 13  1  0
 12 14  2  0
  5 15  1  0
 15 16  1  0
 16 17  1  0
 17 18  1  0
 18 19  1  0
 19 20  1  0
 20 21  1  0
 21 22  1  0
 22 23  1  0
 22 24  2  0
 23 25  1  0
 25 26  1  0
 26 27  1  0
 27 28  1  0
 28 29  1  0
 29 30  1  0
 30 25  1  0
  1 31  1  0
  2 32  1  0
  3 33  1  0
  4 34  1  0
  6 35  1  0
  7 36  1  0
  7 37  1  0
  8 38  1  0
  8 39  1  0
  9 40  1  0
 10 41  1  0
 11 42  1  0
 13 43  1  0
 13 44  1  0
 13 45  1  0
 15 46  1  0
 15 47  1  0
 16 48  1  0
 16 49  1  0
 17 50  1  0
 17 51  1  0
 18 52  1  0
 18 53  1  0
 19 54  1  0
 19 55  1  0
 20 56  1  0
 20 57  1  0
 21 58  1  0
 23 59  1  0
 25 60  1  0
 26 61  1  0
 26 62  1  0
 27 63  1  0
 27 64  1  0
 28 65  1  0
 28 66  1  0
 29 67  1  0
 29 68  1  0
 30 69  1  0
 30 70  1  0
M  END
> <Name>
7e Pingitore et al., 2022

> <Clean Energy>
54.3575820922852

> <Reference>
Pingitore et al., 2022

> <Forcefield>
MMFF

> <ForcefieldBase>
MMFF

> <ForcefieldFFML>
<?xml version="1.0" encoding="UTF-8"?>
<!DOCTYPE ffml SYSTEM "Ffml.dtd">
<ffml version="1.0">
<forcefield name="7e Pingitore et al., 2022-MMFF" derivedFrom="MMFF" base="MMFF">
<atomTypes>
<atomType
 name="C100"
 element="C"
 mass="12.011"
 annotation=""/>
<atomType
 name="N101"
 element="N"
 mass="14.007"
 annotation=""/>
<atomType
 name="O102"
 element="O"
 mass="16"
 annotation=""/>
<atomType
 name="S103"
 element="S"
 mass="32.066"
 annotation=""/>
<atomType
 name="H104"
 element="H"
 mass="1.008"
 annotation=""/>
</atomTypes>
<parameters>
</parameters>
</forcefield>
</ffml>

$$$$
7f Pingitore et al., 2022
  SciTegic07212313593D

 66 66  0  0  0  0            999 V2000
   23.4860  -35.7879   -0.3292 C   0  0  2  0  0  0
   23.8990  -37.1448    0.2796 C   0  0  2  0  0  0
   25.2385  -37.3099   -0.3776 C   0  0  1  0  0  0
   25.8190  -35.9812    0.1827 C   0  0  2  0  0  0
   24.7545  -34.9959   -0.2640 N   0  0
   25.9606  -38.4646    0.0564 O   0  0
   22.2507  -35.1953    0.3739 C   0  0
   27.2565  -35.7002   -0.3056 C   0  0
   22.9386  -38.1775    0.0393 O   0  0
   21.1448  -36.0920    0.2296 O   0  0
   28.1522  -36.7153    0.1395 N   0  0
   29.4592  -36.5104    0.0148 C   0  0
   30.4323  -37.5556    0.4718 C   0  0
   29.8707  -35.4531   -0.4737 O   0  0
   24.6676  -33.5262    0.1511 C   0  0
   25.9480  -32.6853   -0.1702 C   0  0
   25.7930  -31.1893    0.2076 C   0  0
   27.1331  -30.4599   -0.1054 C   0  0
   27.0320  -28.9360    0.1774 C   0  0
   28.4038  -28.2636   -0.1134 C   0  0
   28.3245  -26.8299    0.0735 N   0  0
   29.4912  -26.0416    0.0016 C   0  0
   29.4134  -24.6420    0.0986 N   0  0
   30.8846  -26.7264   -0.1940 S   0  0
   30.6167  -23.8506    0.0159 C   0  0
   30.2724  -22.3465    0.0635 C   0  0
   31.5733  -21.5195   -0.0247 C   0  0
   31.2396  -20.0153    0.0173 C   0  0
   23.2373  -35.9469   -1.3785 H   0  0
   24.0388  -37.0281    1.3543 H   0  0
   25.1541  -37.2795   -1.4639 H   0  0
   25.8200  -36.0288    1.2716 H   0  0
   26.1289  -38.4045    1.0911 H   0  0
   22.4681  -35.0540    1.4326 H   0  0
   22.0013  -34.2352   -0.0777 H   0  0
   27.2638  -35.6707   -1.3952 H   0  0
   27.5847  -34.7377    0.0866 H   0  0
   22.0171  -37.9045    0.4622 H   0  0
   20.9352  -36.2286   -0.7902 H   0  0
   27.7801  -37.6236    0.5653 H   0  0
   31.4498  -37.2100    0.2893 H   0  0
   30.2587  -38.4800   -0.0791 H   0  0
   30.2967  -37.7376    1.5379 H   0  0
   23.8238  -33.0744   -0.3704 H   0  0
   24.4947  -33.4858    1.2265 H   0  0
   26.7868  -33.1006    0.3884 H   0  0
   26.1519  -32.7555   -1.2386 H   0  0
   24.9871  -30.7442   -0.3760 H   0  0
   25.5652  -31.1000    1.2698 H   0  0
   27.9208  -30.8840    0.5173 H   0  0
   27.3802  -30.6091   -1.1565 H   0  0
   26.2687  -28.4970   -0.4650 H   0  0
   26.7638  -28.7773    1.2219 H   0  0
   29.1525  -28.6713    0.5657 H   0  0
   28.6934  -28.4740   -1.1430 H   0  0
   27.3788  -26.3679    0.2665 H   0  0
   28.4652  -24.1649    0.2333 H   0  0
   31.2675  -24.0971    0.8548 H   0  0
   31.1294  -24.0726   -0.9200 H   0  0
   29.6243  -22.0951   -0.7761 H   0  0
   29.7604  -22.1201    0.9988 H   0  0
   32.2192  -21.7704    0.8168 H   0  0
   32.0862  -21.7504   -0.9584 H   0  0
   32.1609  -19.4363   -0.0451 H   0  0
   30.7272  -19.7822    0.9508 H   0  0
   30.5943  -19.7622   -0.8239 H   0  0
  1  2  1  0
  2  3  1  0
  3  4  1  0
  4  5  1  0
  5  1  1  0
  3  6  1  0
  1  7  1  0
  4  8  1  0
  2  9  1  0
  7 10  1  0
  8 11  1  0
 11 12  1  0
 12 13  1  0
 12 14  2  0
  5 15  1  0
 15 16  1  0
 16 17  1  0
 17 18  1  0
 18 19  1  0
 19 20  1  0
 20 21  1  0
 21 22  1  0
 22 23  1  0
 22 24  2  0
 23 25  1  0
 25 26  1  0
 26 27  1  0
 27 28  1  0
  1 29  1  0
  2 30  1  0
  3 31  1  0
  4 32  1  0
  6 33  1  0
  7 34  1  0
  7 35  1  0
  8 36  1  0
  8 37  1  0
  9 38  1  0
 10 39  1  0
 11 40  1  0
 13 41  1  0
 13 42  1  0
 13 43  1  0
 15 44  1  0
 15 45  1  0
 16 46  1  0
 16 47  1  0
 17 48  1  0
 17 49  1  0
 18 50  1  0
 18 51  1  0
 19 52  1  0
 19 53  1  0
 20 54  1  0
 20 55  1  0
 21 56  1  0
 23 57  1  0
 25 58  1  0
 25 59  1  0
 26 60  1  0
 26 61  1  0
 27 62  1  0
 27 63  1  0
 28 64  1  0
 28 65  1  0
 28 66  1  0
M  END
> <Name>
7f Pingitore et al., 2022

> <Clean Energy>
51.2415885925293

> <Reference>
Pingitore et al., 2022

> <Forcefield>
MMFF

> <ForcefieldBase>
MMFF

> <ForcefieldFFML>
<?xml version="1.0" encoding="UTF-8"?>
<!DOCTYPE ffml SYSTEM "Ffml.dtd">
<ffml version="1.0">
<forcefield name="7f Pingitore et al., 2022-MMFF" derivedFrom="MMFF" base="MMFF">
<atomTypes>
<atomType
 name="C100"
 element="C"
 mass="12.011"
 annotation=""/>
<atomType
 name="N101"
 element="N"
 mass="14.007"
 annotation=""/>
<atomType
 name="O102"
 element="O"
 mass="16"
 annotation=""/>
<atomType
 name="S103"
 element="S"
 mass="32.066"
 annotation=""/>
<atomType
 name="H104"
 element="H"
 mass="1.008"
 annotation=""/>
</atomTypes>
<parameters>
</parameters>
</forcefield>
</ffml>

$$$$
7g Pingitore et al., 2022
  SciTegic07212313593D

 72 72  0  0  0  0            999 V2000
   23.8493  -34.8893   -0.3276 C   0  0  2  0  0  0
   24.2559  -36.2525    0.2757 C   0  0  2  0  0  0
   25.5947  -36.4203   -0.3784 C   0  0  1  0  0  0
   26.1809  -35.0945    0.1889 C   0  0  2  0  0  0
   25.1243  -34.1015   -0.2568 N   0  0
   26.3103  -37.5807    0.0527 O   0  0
   22.6159  -34.2997    0.3806 C   0  0
   27.6184  -34.8197   -0.2966 C   0  0
   23.2916  -37.2809    0.0294 O   0  0
   21.5084  -35.1944    0.2305 O   0  0
   28.5056  -35.8438    0.1449 N   0  0
   29.8140  -35.6522    0.0146 C   0  0
   30.7779  -36.7077    0.4677 C   0  0
   30.2339  -34.5998   -0.4757 O   0  0
   25.0481  -32.6224    0.1496 C   0  0
   26.3388  -31.7803   -0.1675 C   0  0
   26.1847  -30.2722    0.2003 C   0  0
   27.5285  -29.5283   -0.1058 C   0  0
   27.4200  -27.9936    0.1697 C   0  0
   28.7941  -27.3021   -0.1127 C   0  0
   28.7100  -25.8577    0.0674 N   0  0
   29.8812  -25.0586   -0.0017 C   0  0
   29.8046  -23.6488    0.0897 N   0  0
   31.2771  -25.7416   -0.1860 S   0  0
   31.0174  -22.8552    0.0161 C   0  0
   30.6956  -21.3379    0.0631 C   0  0
   32.0165  -20.5281   -0.0086 C   0  0
   31.7234  -19.0098    0.0337 C   0  0
   33.0539  -18.2255   -0.0318 C   0  0
   32.7718  -16.7098    0.0079 C   0  0
   23.5998  -35.0414   -1.3777 H   0  0
   24.3942  -36.1413    1.3512 H   0  0
   25.5128  -36.3853   -1.4647 H   0  0
   26.1799  -35.1458    1.2777 H   0  0
   26.4761  -37.5257    1.0881 H   0  0
   22.8343  -34.1662    1.4402 H   0  0
   22.3675  -33.3360   -0.0639 H   0  0
   27.6270  -34.7846   -1.3860 H   0  0
   27.9527  -33.8614    0.1009 H   0  0
   22.3706  -37.0064    0.4526 H   0  0
   21.2980  -35.3235   -0.7901 H   0  0
   28.1260  -36.7482    0.5725 H   0  0
   31.7982  -36.3730    0.2810 H   0  0
   30.5923  -37.6302   -0.0825 H   0  0
   30.6447  -36.8883    1.5344 H   0  0
   24.2098  -32.1689   -0.3792 H   0  0
   24.8689  -32.5755    1.2238 H   0  0
   27.1720  -32.1936    0.4009 H   0  0
   26.5515  -31.8583   -1.2337 H   0  0
   25.3817  -29.8327   -0.3915 H   0  0
   25.9489  -30.1777    1.2603 H   0  0
   28.3136  -29.9450    0.5252 H   0  0
   27.7849  -29.6809   -1.1542 H   0  0
   26.6587  -27.5629   -0.4807 H   0  0
   27.1421  -27.8325    1.2113 H   0  0
   29.5400  -27.7022    0.5741 H   0  0
   29.0935  -27.5146   -1.1390 H   0  0
   27.7616  -25.3981    0.2524 H   0  0
   28.8559  -23.1696    0.2127 H   0  0
   31.6604  -23.1088    0.8589 H   0  0
   31.5342  -23.0807   -0.9167 H   0  0
   30.0614  -21.0745   -0.7835 H   0  0
   30.1765  -21.1051    0.9928 H   0  0
   32.6474  -20.7954    0.8391 H   0  0
   32.5342  -20.7678   -0.9374 H   0  0
   31.0988  -18.7368   -0.8168 H   0  0
   31.2034  -18.7661    0.9601 H   0  0
   33.6771  -18.4995    0.8194 H   0  0
   33.5736  -18.4722   -0.9576 H   0  0
   33.7136  -16.1631   -0.0386 H   0  0
   32.2528  -16.4605    0.9335 H   0  0
   32.1493  -16.4332   -0.8430 H   0  0
  1  2  1  0
  2  3  1  0
  3  4  1  0
  4  5  1  0
  5  1  1  0
  3  6  1  0
  1  7  1  0
  4  8  1  0
  2  9  1  0
  7 10  1  0
  8 11  1  0
 11 12  1  0
 12 13  1  0
 12 14  2  0
  5 15  1  0
 15 16  1  0
 16 17  1  0
 17 18  1  0
 18 19  1  0
 19 20  1  0
 20 21  1  0
 21 22  1  0
 22 23  1  0
 22 24  2  0
 23 25  1  0
 25 26  1  0
 26 27  1  0
 27 28  1  0
 28 29  1  0
 29 30  1  0
  1 31  1  0
  2 32  1  0
  3 33  1  0
  4 34  1  0
  6 35  1  0
  7 36  1  0
  7 37  1  0
  8 38  1  0
  8 39  1  0
  9 40  1  0
 10 41  1  0
 11 42  1  0
 13 43  1  0
 13 44  1  0
 13 45  1  0
 15 46  1  0
 15 47  1  0
 16 48  1  0
 16 49  1  0
 17 50  1  0
 17 51  1  0
 18 52  1  0
 18 53  1  0
 19 54  1  0
 19 55  1  0
 20 56  1  0
 20 57  1  0
 21 58  1  0
 23 59  1  0
 25 60  1  0
 25 61  1  0
 26 62  1  0
 26 63  1  0
 27 64  1  0
 27 65  1  0
 28 66  1  0
 28 67  1  0
 29 68  1  0
 29 69  1  0
 30 70  1  0
 30 71  1  0
 30 72  1  0
M  END
> <Name>
7g Pingitore et al., 2022

> <Clean Energy>
51.5790672302246

> <Reference>
Pingitore et al., 2022

> <Forcefield>
MMFF

> <ForcefieldBase>
MMFF

> <ForcefieldFFML>
<?xml version="1.0" encoding="UTF-8"?>
<!DOCTYPE ffml SYSTEM "Ffml.dtd">
<ffml version="1.0">
<forcefield name="7g Pingitore et al., 2022-MMFF" derivedFrom="MMFF" base="MMFF">
<atomTypes>
<atomType
 name="C100"
 element="C"
 mass="12.011"
 annotation=""/>
<atomType
 name="N101"
 element="N"
 mass="14.007"
 annotation=""/>
<atomType
 name="O102"
 element="O"
 mass="16"
 annotation=""/>
<atomType
 name="S103"
 element="S"
 mass="32.066"
 annotation=""/>
<atomType
 name="H104"
 element="H"
 mass="1.008"
 annotation=""/>
</atomTypes>
<parameters>
</parameters>
</forcefield>
</ffml>

$$$$
7h Pingitore et al., 2022
  SciTegic07212313593D

 70 72  0  0  0  0            999 V2000
   24.5175  -34.0160   -0.3230 C   0  0  2  0  0  0
   24.9183  -35.3889    0.2694 C   0  0  2  0  0  0
   26.2562  -35.5567   -0.3812 C   0  0  1  0  0  0
   26.8484  -34.2351    0.1977 C   0  0  2  0  0  0
   25.8006  -33.2317   -0.2427 N   0  0
   26.9655  -36.7243    0.0422 O   0  0
   23.2855  -33.4354    0.3938 C   0  0
   28.2842  -33.9639   -0.2865 C   0  0
   23.9507  -36.4128    0.0126 O   0  0
   22.1779  -34.3301    0.2328 O   0  0
   29.1691  -34.9932    0.1435 N   0  0
   30.4760  -34.7998    0.0153 C   0  0
   31.4428  -35.8573    0.4543 C   0  0
   30.8938  -33.7390   -0.4636 O   0  0
   25.7401  -31.7382    0.1523 C   0  0
   27.0481  -30.8989   -0.1608 C   0  0
   26.9134  -29.3722    0.1931 C   0  0
   28.2764  -28.6336   -0.1039 C   0  0
   28.1979  -27.0805    0.1577 C   0  0
   29.5990  -26.4112   -0.1128 C   0  0
   29.5709  -24.9486    0.0493 N   0  0
   30.7887  -24.1958   -0.0055 C   0  0
   30.7479  -22.7354    0.0542 N   0  0
   32.1315  -24.9910   -0.1503 S   0  0
   31.8918  -21.8295    0.0331 C   0  0
   33.1540  -22.2693    0.0114 C   0  0
   34.2805  -21.3309   -0.0070 C   0  0
   34.0539  -20.0095   -0.0020 C   0  0
   32.6901  -19.5201    0.0212 C   0  0
   31.6642  -20.3595    0.0385 C   0  0
   35.1647  -19.0693   -0.0193 C   0  0
   34.9179  -17.7542   -0.0145 C   0  0
   33.5308  -17.2393    0.0080 C   0  0
   32.4859  -18.0653    0.0248 C   0  0
   24.2673  -34.1566   -1.3745 H   0  0
   25.0546  -35.2876    1.3461 H   0  0
   26.1770  -35.5132   -1.4675 H   0  0
   26.8471  -34.2935    1.2862 H   0  0
   27.1284  -36.6788    1.0785 H   0  0
   23.5048  -33.3152    1.4547 H   0  0
   23.0362  -32.4663   -0.0384 H   0  0
   28.2908  -33.9199   -1.3756 H   0  0
   28.6229  -33.0103    0.1182 H   0  0
   23.0299  -36.1393    0.4368 H   0  0
   21.9670  -34.4463   -0.7893 H   0  0
   28.7891  -35.9023    0.5607 H   0  0
   32.4620  -35.5175    0.2703 H   0  0
   31.2591  -36.7737   -0.1066 H   0  0
   31.3116  -36.0509    1.5189 H   0  0
   24.9102  -31.2812   -0.3868 H   0  0
   25.5527  -31.6813    1.2246 H   0  0
   27.8722  -31.3158    0.4181 H   0  0
   27.2689  -30.9882   -1.2245 H   0  0
   26.1223  -28.9289   -0.4116 H   0  0
   26.6668  -29.2659    1.2495 H   0  0
   29.0489  -29.0565    0.5384 H   0  0
   28.5414  -28.7981   -1.1483 H   0  0
   27.4546  -26.6407   -0.5073 H   0  0
   27.9088  -26.9042    1.1938 H   0  0
   30.3242  -26.8257    0.5875 H   0  0
   29.9048  -26.6430   -1.1330 H   0  0
   28.6394  -24.4467    0.2085 H   0  0
   29.7798  -22.2846    0.1200 H   0  0
   33.3487  -23.3418    0.0071 H   0  0
   35.3031  -21.7080   -0.0246 H   0  0
   30.6465  -19.9697    0.0568 H   0  0
   36.1916  -19.4344   -0.0361 H   0  0
   35.7512  -17.0517   -0.0273 H   0  0
   33.3608  -16.1626    0.0108 H   0  0
   31.4743  -17.6597    0.0414 H   0  0
  1  2  1  0
  2  3  1  0
  3  4  1  0
  4  5  1  0
  5  1  1  0
  3  6  1  0
  1  7  1  0
  4  8  1  0
  2  9  1  0
  7 10  1  0
  8 11  1  0
 11 12  1  0
 12 13  1  0
 12 14  2  0
  5 15  1  0
 15 16  1  0
 16 17  1  0
 17 18  1  0
 18 19  1  0
 19 20  1  0
 20 21  1  0
 21 22  1  0
 22 23  1  0
 22 24  2  0
 23 25  1  0
 25 26  2  0
 26 27  1  0
 27 28  2  0
 28 29  1  0
 29 30  2  0
 30 25  1  0
 28 31  1  0
 31 32  2  0
 32 33  1  0
 33 34  2  0
 34 29  1  0
  1 35  1  0
  2 36  1  0
  3 37  1  0
  4 38  1  0
  6 39  1  0
  7 40  1  0
  7 41  1  0
  8 42  1  0
  8 43  1  0
  9 44  1  0
 10 45  1  0
 11 46  1  0
 13 47  1  0
 13 48  1  0
 13 49  1  0
 15 50  1  0
 15 51  1  0
 16 52  1  0
 16 53  1  0
 17 54  1  0
 17 55  1  0
 18 56  1  0
 18 57  1  0
 19 58  1  0
 19 59  1  0
 20 60  1  0
 20 61  1  0
 21 62  1  0
 23 63  1  0
 26 64  1  0
 27 65  1  0
 30 66  1  0
 31 67  1  0
 32 68  1  0
 33 69  1  0
 34 70  1  0
M  END
> <Name>
7h Pingitore et al., 2022

> <Clean Energy>
55.2906036376953

> <Reference>
Pingitore et al., 2022

> <Forcefield>
MMFF

> <ForcefieldBase>
MMFF

> <ForcefieldFFML>
<?xml version="1.0" encoding="UTF-8"?>
<!DOCTYPE ffml SYSTEM "Ffml.dtd">
<ffml version="1.0">
<forcefield name="7h Pingitore et al., 2022-MMFF" derivedFrom="MMFF" base="MMFF">
<atomTypes>
<atomType
 name="C100"
 element="C"
 mass="12.011"
 annotation=""/>
<atomType
 name="N101"
 element="N"
 mass="14.007"
 annotation=""/>
<atomType
 name="O102"
 element="O"
 mass="16"
 annotation=""/>
<atomType
 name="S103"
 element="S"
 mass="32.066"
 annotation=""/>
<atomType
 name="H104"
 element="H"
 mass="1.008"
 annotation=""/>
</atomTypes>
<parameters>
</parameters>
</forcefield>
</ffml>

$$$$
7i Pingitore et al., 2022
  SciTegic07212313593D

 74 76  0  0  0  0            999 V2000
   25.1397  -33.5254   -0.3221 C   0  0  2  0  0  0
   25.5374  -34.9008    0.2692 C   0  0  2  0  0  0
   26.8745  -35.0714   -0.3807 C   0  0  1  0  0  0
   27.4705  -33.7512    0.1993 C   0  0  2  0  0  0
   26.4267  -32.7433   -0.2406 N   0  0
   27.5806  -36.2412    0.0422 O   0  0
   23.9085  -32.9454    0.3962 C   0  0
   28.9062  -33.4850   -0.2857 C   0  0
   24.5677  -35.9229    0.0112 O   0  0
   22.8002  -33.8397    0.2335 O   0  0
   29.7880  -34.5167    0.1434 N   0  0
   31.0951  -34.3257    0.0153 C   0  0
   32.0599  -35.3853    0.4532 C   0  0
   31.5147  -33.2652   -0.4626 O   0  0
   26.3750  -31.2445    0.1506 C   0  0
   27.6926  -30.4123   -0.1620 C   0  0
   27.5783  -28.8791    0.1886 C   0  0
   28.9563  -28.1575   -0.1058 C   0  0
   28.9070  -26.5985    0.1526 C   0  0
   30.3246  -25.9491   -0.1127 C   0  0
   30.3200  -24.4819    0.0462 N   0  0
   31.5493  -23.7354   -0.0076 C   0  0
   31.5160  -22.2747    0.0506 N   0  0
   32.8900  -24.5337   -0.1473 S   0  0
   32.6629  -21.3642    0.0336 C   0  0
   33.9270  -21.7960    0.0134 C   0  0
   35.0516  -20.8388    0.0015 C   0  0
   34.8245  -19.5284    0.0102 C   0  0
   33.4400  -19.0375    0.0315 C   0  0
   32.4203  -19.9033    0.0433 C   0  0
   35.9591  -18.5744    0.0015 C   0  0
   37.2136  -19.0348   -0.0107 C   0  0
   38.3437  -18.0973   -0.0174 C   0  0
   38.1222  -16.7842   -0.0111 C   0  0
   36.7468  -16.2754    0.0023 C   0  0
   35.7192  -17.1254    0.0083 C   0  0
   24.8891  -33.6641   -1.3738 H   0  0
   25.6735  -34.8010    1.3461 H   0  0
   26.7957  -35.0270   -1.4669 H   0  0
   27.4695  -33.8102    1.2877 H   0  0
   27.7431  -36.1971    1.0786 H   0  0
   24.1282  -32.8273    1.4572 H   0  0
   23.6596  -31.9753   -0.0340 H   0  0
   28.9122  -33.4410   -1.3748 H   0  0
   29.2483  -32.5324    0.1189 H   0  0
   23.6474  -35.6480    0.4355 H   0  0
   22.5891  -33.9539   -0.7887 H   0  0
   29.4059  -35.4253    0.5597 H   0  0
   33.0797  -35.0472    0.2693 H   0  0
   31.8744  -36.3008   -0.1085 H   0  0
   31.9285  -35.5796    1.5176 H   0  0
   25.5497  -30.7837   -0.3923 H   0  0
   26.1850  -31.1832    1.2221 H   0  0
   28.5121  -30.8367    0.4181 H   0  0
   27.9131  -30.5056   -1.2254 H   0  0
   26.7956  -28.4263   -0.4200 H   0  0
   27.3294  -28.7669    1.2438 H   0  0
   29.7201  -28.5920    0.5391 H   0  0
   29.2211  -28.3280   -1.1493 H   0  0
   28.1746  -26.1469   -0.5165 H   0  0
   28.6164  -26.4153    1.1871 H   0  0
   31.0395  -26.3735    0.5922 H   0  0
   30.6320  -26.1881   -1.1308 H   0  0
   29.3943  -23.9685    0.2028 H   0  0
   30.5485  -21.8219    0.1124 H   0  0
   34.1306  -22.8668    0.0055 H   0  0
   36.0765  -21.2094   -0.0147 H   0  0
   33.2432  -17.9654    0.0378 H   0  0
   31.3969  -19.5284    0.0602 H   0  0
   37.3984  -20.1090   -0.0157 H   0  0
   39.3655  -18.4768   -0.0275 H   0  0
   38.9616  -16.0889   -0.0159 H   0  0
   36.5641  -15.2009    0.0072 H   0  0
   34.6983  -16.7437    0.0183 H   0  0
  1  2  1  0
  2  3  1  0
  3  4  1  0
  4  5  1  0
  5  1  1  0
  3  6  1  0
  1  7  1  0
  4  8  1  0
  2  9  1  0
  7 10  1  0
  8 11  1  0
 11 12  1  0
 12 13  1  0
 12 14  2  0
  5 15  1  0
 15 16  1  0
 16 17  1  0
 17 18  1  0
 18 19  1  0
 19 20  1  0
 20 21  1  0
 21 22  1  0
 22 23  1  0
 22 24  2  0
 23 25  1  0
 25 26  2  0
 26 27  1  0
 27 28  2  0
 28 29  1  0
 29 30  2  0
 30 25  1  0
 28 31  1  0
 31 32  2  0
 32 33  1  0
 33 34  2  0
 34 35  1  0
 35 36  2  0
 36 31  1  0
  1 37  1  0
  2 38  1  0
  3 39  1  0
  4 40  1  0
  6 41  1  0
  7 42  1  0
  7 43  1  0
  8 44  1  0
  8 45  1  0
  9 46  1  0
 10 47  1  0
 11 48  1  0
 13 49  1  0
 13 50  1  0
 13 51  1  0
 15 52  1  0
 15 53  1  0
 16 54  1  0
 16 55  1  0
 17 56  1  0
 17 57  1  0
 18 58  1  0
 18 59  1  0
 19 60  1  0
 19 61  1  0
 20 62  1  0
 20 63  1  0
 21 64  1  0
 23 65  1  0
 26 66  1  0
 27 67  1  0
 29 68  1  0
 30 69  1  0
 32 70  1  0
 33 71  1  0
 34 72  1  0
 35 73  1  0
 36 74  1  0
M  END
> <Name>
7i Pingitore et al., 2022

> <Clean Energy>
55.3234825134277

> <Reference>
Pingitore et al., 2022

> <Forcefield>
MMFF

> <ForcefieldBase>
MMFF

> <ForcefieldFFML>
<?xml version="1.0" encoding="UTF-8"?>
<!DOCTYPE ffml SYSTEM "Ffml.dtd">
<ffml version="1.0">
<forcefield name="7i Pingitore et al., 2022-MMFF" derivedFrom="MMFF" base="MMFF">
<atomTypes>
<atomType
 name="C100"
 element="C"
 mass="12.011"
 annotation=""/>
<atomType
 name="N101"
 element="N"
 mass="14.007"
 annotation=""/>
<atomType
 name="O102"
 element="O"
 mass="16"
 annotation=""/>
<atomType
 name="S103"
 element="S"
 mass="32.066"
 annotation=""/>
<atomType
 name="H104"
 element="H"
 mass="1.008"
 annotation=""/>
</atomTypes>
<parameters>
</parameters>
</forcefield>
</ffml>

$$$$
7j Pingitore et al., 2022
  SciTegic07212313593D

 77 77  0  0  0  0            999 V2000
   32.3487  -18.6223   -0.0526 N   0  0
   33.4948  -16.4378   -0.1977 O   0  0
   33.3846  -14.9693   -0.1050 C   0  0
   34.7734  -14.3624   -0.3930 C   0  0
   32.9592  -14.5216    1.3144 C   0  0
   32.3982  -14.4073   -1.1578 C   0  0
   32.2935  -17.2015    0.0352 C   0  0
   31.2122  -16.6599    0.2990 O   0  0
   33.2816  -19.0977   -0.2735 H   0  0
   35.1014  -14.6606   -1.3888 H   0  0
   35.4882  -14.7219    0.3472 H   0  0
   34.7132  -13.2752   -0.3413 H   0  0
   31.9785  -14.9358    1.5479 H   0  0
   32.9121  -13.4333    1.3538 H   0  0
   33.6871  -14.8799    2.0424 H   0  0
   31.4043  -14.8183   -0.9812 H   0  0
   32.7340  -14.6865   -2.1566 H   0  0
   32.3609  -13.3208   -1.0780 H   0  0
   24.3670  -33.2881   -0.3245 C   0  0  2  0  0  0
   24.7624  -34.6615    0.2689 C   0  0  2  0  0  0
   26.0995  -34.8367   -0.3809 C   0  0  1  0  0  0
   26.6963  -33.5139    0.1952 C   0  0  2  0  0  0
   25.6546  -32.5072   -0.2467 N   0  0
   26.8030  -36.0060    0.0444 O   0  0
   23.1372  -32.7030    0.3920 C   0  0
   28.1331  -33.2526   -0.2843 C   0  0
   23.7908  -35.6829    0.0148 O   0  0
   22.0269  -33.5951    0.2338 O   0  0
   29.0059  -34.2905    0.1492 N   0  0
   30.3106  -34.1360    0.0169 C   0  0
   31.2594  -35.2030    0.4597 C   0  0
   30.7546  -33.0800   -0.4808 O   0  0
   25.6001  -31.0121    0.1524 C   0  0
   26.9062  -30.1625   -0.1649 C   0  0
   26.7583  -28.6351    0.2073 C   0  0
   28.1028  -27.8537   -0.0967 C   0  0
   27.9834  -26.3041    0.2049 C   0  0
   29.3521  -25.5593   -0.0754 C   0  0
   29.2531  -24.0999    0.1434 N   0  0
   30.4127  -23.2525    0.0255 C   0  0
   30.3111  -21.8256    0.1584 N   0  0
   31.8102  -23.8950   -0.2629 S   0  0
   31.4989  -20.9715   -0.0100 C   0  0
   31.1549  -19.4463    0.1534 C   0  0
   24.1155  -33.4293   -1.3757 H   0  0
   24.8993  -34.5591    1.3454 H   0  0
   26.0204  -34.7953   -1.4672 H   0  0
   26.6927  -33.5702    1.2838 H   0  0
   26.9658  -35.9597    1.0807 H   0  0
   23.3577  -32.5810    1.4524 H   0  0
   22.8900  -31.7341   -0.0420 H   0  0
   28.1440  -33.2080   -1.3734 H   0  0
   28.4784  -32.3020    0.1222 H   0  0
   22.8715  -35.4056    0.4396 H   0  0
   21.8148  -33.7130   -0.7878 H   0  0
   28.6086  -35.1867    0.5780 H   0  0
   32.2831  -34.8832    0.2651 H   0  0
   31.0557  -36.1220   -0.0899 H   0  0
   31.1322  -35.3828    1.5273 H   0  0
   24.7662  -30.5544   -0.3799 H   0  0
   25.4195  -30.9592    1.2260 H   0  0
   27.7373  -30.5790    0.4042 H   0  0
   27.1199  -30.2404   -1.2309 H   0  0
   25.9505  -28.1999   -0.3810 H   0  0
   26.5246  -28.5462    1.2682 H   0  0
   28.8971  -28.2703    0.5228 H   0  0
   28.3543  -27.9868   -1.1489 H   0  0
   27.2091  -25.8766   -0.4322 H   0  0
   27.7111  -26.1656    1.2512 H   0  0
   30.1135  -25.9626    0.5922 H   0  0
   29.6433  -25.7393   -1.1102 H   0  0
   28.3069  -23.6671    0.3929 H   0  0
   29.3645  -21.3796    0.3817 H   0  0
   32.2400  -21.2474    0.7402 H   0  0
   31.9112  -21.1345   -1.0058 H   0  0
   30.3980  -19.1695   -0.5804 H   0  0
   30.7688  -19.2722    1.1578 H   0  0
  7  8  2  0
  3  4  1  0
  3  5  1  0
  3  6  1  0
  2  3  1  0
  2  7  1  0
  1  7  1  0
  1  9  1  0
  4 10  1  0
  4 11  1  0
  4 12  1  0
  5 13  1  0
  5 14  1  0
  5 15  1  0
  6 16  1  0
  6 17  1  0
  6 18  1  0
 19 20  1  0
 20 21  1  0
 21 22  1  0
 22 23  1  0
 23 19  1  0
 21 24  1  0
 19 25  1  0
 22 26  1  0
 20 27  1  0
 25 28  1  0
 26 29  1  0
 29 30  1  0
 30 31  1  0
 30 32  2  0
 23 33  1  0
 33 34  1  0
 34 35  1  0
 35 36  1  0
 36 37  1  0
 37 38  1  0
 38 39  1  0
 39 40  1  0
 40 41  1  0
 40 42  2  0
 41 43  1  0
 44 43  1  0
 19 45  1  0
 20 46  1  0
 21 47  1  0
 22 48  1  0
 24 49  1  0
 25 50  1  0
 25 51  1  0
 26 52  1  0
 26 53  1  0
 27 54  1  0
 28 55  1  0
 29 56  1  0
 31 57  1  0
 31 58  1  0
 31 59  1  0
 33 60  1  0
 33 61  1  0
 34 62  1  0
 34 63  1  0
 35 64  1  0
 35 65  1  0
 36 66  1  0
 36 67  1  0
 37 68  1  0
 37 69  1  0
 38 70  1  0
 38 71  1  0
 39 72  1  0
 41 73  1  0
 43 74  1  0
 43 75  1  0
 44 76  1  0
 44 77  1  0
 44  1  1  0
M  END
> <Name>
7j Pingitore et al., 2022

> <Clean Energy>
56.1809425354004

> <Reference>
Pingitore et al., 2022

> <Forcefield>
MMFF

> <ForcefieldBase>
MMFF

> <ForcefieldFFML>
<?xml version="1.0" encoding="UTF-8"?>
<!DOCTYPE ffml SYSTEM "Ffml.dtd">
<ffml version="1.0">
<forcefield name="7j Pingitore et al., 2022-MMFF" derivedFrom="MMFF" base="MMFF">
<atomTypes>
<atomType
 name="N100"
 element="N"
 mass="14.007"
 annotation=""/>
<atomType
 name="O101"
 element="O"
 mass="16"
 annotation=""/>
<atomType
 name="C102"
 element="C"
 mass="12.011"
 annotation=""/>
<atomType
 name="H103"
 element="H"
 mass="1.008"
 annotation=""/>
<atomType
 name="S104"
 element="S"
 mass="32.066"
 annotation=""/>
</atomTypes>
<parameters>
</parameters>
</forcefield>
</ffml>

$$$$
7k Pingitore et al., 2022
  SciTegic07212313593D

 60 60  0  0  0  0            999 V2000
   23.1414  -36.6605   -0.3314 C   0  0  2  0  0  0
   23.5614  -38.0104    0.2844 C   0  0  2  0  0  0
   24.9012  -38.1731   -0.3767 C   0  0  1  0  0  0
   25.4762  -36.8408    0.1744 C   0  0  2  0  0  0
   24.4034  -35.8636   -0.2733 N   0  0
   25.6305  -39.3215    0.0607 O   0  0
   21.9039  -36.0646    0.3657 C   0  0
   26.9131  -36.5537   -0.3182 C   0  0
   22.6050  -39.0479    0.0515 O   0  0
   20.8000  -36.9640    0.2286 O   0  0
   27.8191  -37.5576    0.1310 N   0  0
   29.1240  -37.3343    0.0149 C   0  0
   30.1090  -38.3663    0.4761 C   0  0
   29.5240  -36.2701   -0.4691 O   0  0
   24.3074  -34.4027    0.1511 C   0  0
   25.5793  -33.5640   -0.1736 C   0  0
   25.4277  -32.0794    0.2142 C   0  0
   26.7671  -31.3663   -0.1033 C   0  0
   26.6734  -29.8525    0.1853 C   0  0
   28.0420  -29.1921   -0.1091 C   0  0
   27.9533  -27.7682    0.0815 N   0  0
   29.1038  -26.9708    0.0039 C   0  0
   28.9978  -25.5796    0.1025 N   0  0
   30.5066  -27.6337   -0.2021 S   0  0
   30.1730  -24.7589    0.0080 C   0  0
   29.7695  -23.2732    0.0607 C   0  0
   22.8933  -36.8277   -1.3795 H   0  0
   23.7033  -37.8868    1.3580 H   0  0
   24.8136  -38.1485   -1.4629 H   0  0
   25.4801  -36.8837    1.2635 H   0  0
   25.8019  -39.2550    1.0945 H   0  0
   22.1202  -35.9137    1.4233 H   0  0
   21.6529  -35.1088   -0.0943 H   0  0
   26.9181  -36.5316   -1.4079 H   0  0
   27.2347  -35.5860    0.0669 H   0  0
   21.6832  -38.7761    0.4744 H   0  0
   20.5912  -37.1099   -0.7901 H   0  0
   27.4565  -38.4717    0.5527 H   0  0
   31.1226  -38.0059    0.3005 H   0  0
   29.9521  -39.2920   -0.0775 H   0  0
   29.9694  -38.5521    1.5411 H   0  0
   23.4589  -33.9516   -0.3633 H   0  0
   24.1402  -34.3689    1.2276 H   0  0
   26.4228  -33.9832    0.3749 H   0  0
   25.7742  -33.6265   -1.2442 H   0  0
   24.6211  -31.6264   -0.3623 H   0  0
   25.2062  -31.9951    1.2781 H   0  0
   27.5550  -31.7981    0.5138 H   0  0
   27.0077  -31.5136   -1.1562 H   0  0
   25.9092  -29.4067   -0.4514 H   0  0
   26.4112  -29.6966    1.2318 H   0  0
   28.7927  -29.6005    0.5675 H   0  0
   28.3290  -29.4008   -1.1398 H   0  0
   27.0047  -27.3162    0.2834 H   0  0
   28.0398  -25.1259    0.2485 H   0  0
   30.8403  -24.9835    0.8401 H   0  0
   30.6835  -24.9631   -0.9331 H   0  0
   30.6617  -22.6512   -0.0110 H   0  0
   29.2589  -23.0680    1.0016 H   0  0
   29.1022  -23.0477   -0.7711 H   0  0
  1  2  1  0
  2  3  1  0
  3  4  1  0
  4  5  1  0
  5  1  1  0
  3  6  1  0
  1  7  1  0
  4  8  1  0
  2  9  1  0
  7 10  1  0
  8 11  1  0
 11 12  1  0
 12 13  1  0
 12 14  2  0
  5 15  1  0
 15 16  1  0
 16 17  1  0
 17 18  1  0
 18 19  1  0
 19 20  1  0
 20 21  1  0
 21 22  1  0
 22 23  1  0
 22 24  2  0
 23 25  1  0
 26 25  1  0
  1 27  1  0
  2 28  1  0
  3 29  1  0
  4 30  1  0
  6 31  1  0
  7 32  1  0
  7 33  1  0
  8 34  1  0
  8 35  1  0
  9 36  1  0
 10 37  1  0
 11 38  1  0
 13 39  1  0
 13 40  1  0
 13 41  1  0
 15 42  1  0
 15 43  1  0
 16 44  1  0
 16 45  1  0
 17 46  1  0
 17 47  1  0
 18 48  1  0
 18 49  1  0
 19 50  1  0
 19 51  1  0
 20 52  1  0
 20 53  1  0
 21 54  1  0
 23 55  1  0
 25 56  1  0
 25 57  1  0
 26 58  1  0
 26 59  1  0
 26 60  1  0
M  END
> <Name>
7k Pingitore et al., 2022

> <Clean Energy>
51.2226066589355

> <Reference>
Pingitore et al., 2022

> <Forcefield>
MMFF

> <ForcefieldBase>
MMFF

> <ForcefieldFFML>
<?xml version="1.0" encoding="UTF-8"?>
<!DOCTYPE ffml SYSTEM "Ffml.dtd">
<ffml version="1.0">
<forcefield name="7k Pingitore et al., 2022-MMFF" derivedFrom="MMFF" base="MMFF">
<atomTypes>
<atomType
 name="C100"
 element="C"
 mass="12.011"
 annotation=""/>
<atomType
 name="N101"
 element="N"
 mass="14.007"
 annotation=""/>
<atomType
 name="O102"
 element="O"
 mass="16"
 annotation=""/>
<atomType
 name="S103"
 element="S"
 mass="32.066"
 annotation=""/>
<atomType
 name="H104"
 element="H"
 mass="1.008"
 annotation=""/>
</atomTypes>
<parameters>
</parameters>
</forcefield>
</ffml>

$$$$
7l Pingitore et al., 2022
  SciTegic07212313593D

 67 68  0  0  0  0            999 V2000
   23.7106  -34.6917   -0.3271 C   0  0  2  0  0  0
   24.1199  -36.0551    0.2741 C   0  0  2  0  0  0
   25.4594  -36.2187   -0.3789 C   0  0  1  0  0  0
   26.0420  -34.8912    0.1914 C   0  0  2  0  0  0
   24.9841  -33.9003   -0.2538 N   0  0
   26.1770  -37.3783    0.0509 O   0  0
   22.4755  -34.1067    0.3818 C   0  0
   27.4785  -34.6119   -0.2917 C   0  0
   23.1580  -37.0855    0.0255 O   0  0
   21.3703  -35.0040    0.2295 O   0  0
   28.3657  -35.6376    0.1479 N   0  0
   29.6736  -35.4520    0.0145 C   0  0
   30.6355  -36.5096    0.4654 C   0  0
   30.0967  -34.4000   -0.4786 O   0  0
   24.9021  -32.4200    0.1519 C   0  0
   26.1875  -31.5645   -0.1625 C   0  0
   26.0092  -30.0538    0.2012 C   0  0
   27.3387  -29.2794   -0.1038 C   0  0
   27.1983  -27.7414    0.1664 C   0  0
   28.5609  -27.0243   -0.1186 C   0  0
   28.4701  -25.5736    0.0529 N   0  0
   29.6512  -24.7844   -0.0055 C   0  0
   29.6112  -23.3675    0.0739 N   0  0
   31.0383  -25.4940   -0.1647 S   0  0
   30.8666  -22.6374    0.0264 C   0  0
   30.6881  -21.1301    0.0191 C   0  0
   31.7654  -20.3463   -0.0023 C   0  0
   31.6228  -18.8860   -0.0110 C   0  0
   30.4089  -18.3387    0.0016 C   0  0
   29.2195  -19.1984    0.0245 C   0  0
   29.3499  -20.5274    0.0331 C   0  0
   23.4621  -34.8424   -1.3776 H   0  0
   24.2570  -35.9454    1.3499 H   0  0
   25.3784  -36.1822   -1.4652 H   0  0
   26.0399  -34.9440    1.2801 H   0  0
   26.3416  -37.3248    1.0866 H   0  0
   22.6932  -33.9748    1.4417 H   0  0
   22.2248  -33.1428   -0.0609 H   0  0
   27.4885  -34.5728   -1.3810 H   0  0
   27.8113  -33.6547    0.1098 H   0  0
   22.2361  -36.8140    0.4485 H   0  0
   21.1605  -35.1316   -0.7914 H   0  0
   27.9846  -36.5404    0.5774 H   0  0
   31.6563  -36.1779    0.2754 H   0  0
   30.4457  -37.4320   -0.0835 H   0  0
   30.5051  -36.6890    1.5327 H   0  0
   24.0613  -31.9717   -0.3775 H   0  0
   24.7217  -32.3746    1.2259 H   0  0
   27.0225  -31.9655    0.4121 H   0  0
   26.4073  -31.6435   -1.2272 H   0  0
   25.1987  -29.6310   -0.3925 H   0  0
   25.7705  -29.9615    1.2608 H   0  0
   28.1308  -29.6770    0.5307 H   0  0
   27.6011  -29.4300   -1.1509 H   0  0
   26.4292  -27.3285   -0.4864 H   0  0
   26.9165  -27.5815    1.2071 H   0  0
   29.3120  -27.4124    0.5694 H   0  0
   28.8619  -27.2380   -1.1442 H   0  0
   27.5207  -25.1098    0.2213 H   0  0
   28.6793  -22.8499    0.1665 H   0  0
   31.4583  -22.9108    0.9001 H   0  0
   31.4000  -22.9264   -0.8791 H   0  0
   32.7596  -20.7931   -0.0134 H   0  0
   32.5084  -18.2508   -0.0277 H   0  0
   30.2988  -17.2543   -0.0050 H   0  0
   28.2259  -18.7504    0.0344 H   0  0
   28.4646  -21.1631    0.0505 H   0  0
  1  2  1  0
  2  3  1  0
  3  4  1  0
  4  5  1  0
  5  1  1  0
  3  6  1  0
  1  7  1  0
  4  8  1  0
  2  9  1  0
  7 10  1  0
  8 11  1  0
 11 12  1  0
 12 13  1  0
 12 14  2  0
  5 15  1  0
 15 16  1  0
 16 17  1  0
 17 18  1  0
 18 19  1  0
 19 20  1  0
 20 21  1  0
 21 22  1  0
 22 23  1  0
 22 24  2  0
 23 25  1  0
 26 25  1  0
 26 27  2  0
 27 28  1  0
 28 29  2  0
 29 30  1  0
 30 31  2  0
 31 26  1  0
  1 32  1  0
  2 33  1  0
  3 34  1  0
  4 35  1  0
  6 36  1  0
  7 37  1  0
  7 38  1  0
  8 39  1  0
  8 40  1  0
  9 41  1  0
 10 42  1  0
 11 43  1  0
 13 44  1  0
 13 45  1  0
 13 46  1  0
 15 47  1  0
 15 48  1  0
 16 49  1  0
 16 50  1  0
 17 51  1  0
 17 52  1  0
 18 53  1  0
 18 54  1  0
 19 55  1  0
 19 56  1  0
 20 57  1  0
 20 58  1  0
 21 59  1  0
 23 60  1  0
 25 61  1  0
 25 62  1  0
 27 63  1  0
 28 64  1  0
 29 65  1  0
 30 66  1  0
 31 67  1  0
M  END
> <Name>
7l Pingitore et al., 2022

> <Clean Energy>
51.9115142822266

> <Reference>
Pingitore et al., 2022

> <Forcefield>
MMFF

> <ForcefieldBase>
MMFF

> <ForcefieldFFML>
<?xml version="1.0" encoding="UTF-8"?>
<!DOCTYPE ffml SYSTEM "Ffml.dtd">
<ffml version="1.0">
<forcefield name="7l Pingitore et al., 2022-MMFF" derivedFrom="MMFF" base="MMFF">
<atomTypes>
<atomType
 name="C100"
 element="C"
 mass="12.011"
 annotation=""/>
<atomType
 name="N101"
 element="N"
 mass="14.007"
 annotation=""/>
<atomType
 name="O102"
 element="O"
 mass="16"
 annotation=""/>
<atomType
 name="S103"
 element="S"
 mass="32.066"
 annotation=""/>
<atomType
 name="H104"
 element="H"
 mass="1.008"
 annotation=""/>
</atomTypes>
<parameters>
</parameters>
</forcefield>
</ffml>

$$$$
7m Pingitore et al., 2022
  SciTegic07212313593D

 64 64  0  0  0  0            999 V2000
   23.4888  -35.7803   -0.3290 C   0  0  2  0  0  0
   23.9010  -37.1379    0.2792 C   0  0  2  0  0  0
   25.2404  -37.3033   -0.3777 C   0  0  1  0  0  0
   25.8215  -35.9750    0.1834 C   0  0  2  0  0  0
   24.7578  -34.9890   -0.2632 N   0  0
   25.9618  -38.4587    0.0559 O   0  0
   22.2537  -35.1878    0.3745 C   0  0
   27.2592  -35.6949   -0.3045 C   0  0
   22.9400  -38.1700    0.0381 O   0  0
   21.1475  -36.0840    0.2296 O   0  0
   28.1537  -36.7112    0.1403 N   0  0
   29.4610  -36.5085    0.0147 C   0  0
   30.4325  -37.5553    0.4714 C   0  0
   29.8739  -35.4522   -0.4743 O   0  0
   24.6718  -33.5187    0.1512 C   0  0
   25.9528  -32.6779   -0.1699 C   0  0
   25.7978  -31.1811    0.2073 C   0  0
   27.1379  -30.4508   -0.1055 C   0  0
   27.0368  -28.9263    0.1772 C   0  0
   28.4089  -28.2536   -0.1134 C   0  0
   28.3309  -26.8194    0.0736 N   0  0
   29.4990  -26.0323    0.0012 C   0  0
   29.4236  -24.6320    0.0981 N   0  0
   30.8913  -26.7192   -0.1950 S   0  0
   30.6286  -23.8423    0.0140 C   0  0
   30.2877  -22.3370    0.0626 C   0  0
   31.4976  -21.5709   -0.0213 O   0  0
   31.1897  -20.1736    0.0172 C   0  0
   23.2399  -35.9386   -1.3784 H   0  0
   24.0405  -37.0218    1.3539 H   0  0
   25.1563  -37.2723   -1.4640 H   0  0
   25.8222  -36.0231    1.2723 H   0  0
   26.1297  -38.3991    1.0907 H   0  0
   22.4712  -35.0473    1.4333 H   0  0
   22.0046  -34.2272   -0.0763 H   0  0
   27.2667  -35.6647   -1.3940 H   0  0
   27.5882  -34.7329    0.0885 H   0  0
   22.0186  -37.8967    0.4611 H   0  0
   20.9378  -36.2199   -0.7903 H   0  0
   27.7804  -37.6188    0.5667 H   0  0
   31.4505  -37.2116    0.2882 H   0  0
   30.2570  -38.4795   -0.0792 H   0  0
   30.2972  -37.7369    1.5377 H   0  0
   23.8284  -33.0668   -0.3707 H   0  0
   24.4986  -33.4778    1.2266 H   0  0
   26.7913  -33.0930    0.3893 H   0  0
   26.1573  -32.7486   -1.2382 H   0  0
   24.9919  -30.7365   -0.3767 H   0  0
   25.5696  -31.0914    1.2694 H   0  0
   27.9256  -30.8747    0.5174 H   0  0
   27.3852  -30.6000   -1.1565 H   0  0
   26.2736  -28.4874   -0.4654 H   0  0
   26.7683  -28.7675    1.2217 H   0  0
   29.1574  -28.6619    0.5657 H   0  0
   28.6984  -28.4640   -1.1430 H   0  0
   27.3859  -26.3564    0.2669 H   0  0
   28.4763  -24.1534    0.2337 H   0  0
   31.2801  -24.0904    0.8519 H   0  0
   31.1396  -24.0650   -0.9227 H   0  0
   29.6386  -22.0841   -0.7757 H   0  0
   29.7779  -22.1099    0.9989 H   0  0
   32.1118  -19.5960   -0.0468 H   0  0
   30.6788  -19.9392    0.9511 H   0  0
   30.5437  -19.9201   -0.8234 H   0  0
  1  2  1  0
  2  3  1  0
  3  4  1  0
  4  5  1  0
  5  1  1  0
  3  6  1  0
  1  7  1  0
  4  8  1  0
  2  9  1  0
  7 10  1  0
  8 11  1  0
 11 12  1  0
 12 13  1  0
 12 14  2  0
  5 15  1  0
 15 16  1  0
 16 17  1  0
 17 18  1  0
 18 19  1  0
 19 20  1  0
 20 21  1  0
 21 22  1  0
 22 23  1  0
 22 24  2  0
 23 25  1  0
 26 25  1  0
 26 27  1  0
 27 28  1  0
  1 29  1  0
  2 30  1  0
  3 31  1  0
  4 32  1  0
  6 33  1  0
  7 34  1  0
  7 35  1  0
  8 36  1  0
  8 37  1  0
  9 38  1  0
 10 39  1  0
 11 40  1  0
 13 41  1  0
 13 42  1  0
 13 43  1  0
 15 44  1  0
 15 45  1  0
 16 46  1  0
 16 47  1  0
 17 48  1  0
 17 49  1  0
 18 50  1  0
 18 51  1  0
 19 52  1  0
 19 53  1  0
 20 54  1  0
 20 55  1  0
 21 56  1  0
 23 57  1  0
 25 58  1  0
 25 59  1  0
 26 60  1  0
 26 61  1  0
 28 62  1  0
 28 63  1  0
 28 64  1  0
M  END
> <Name>
7m Pingitore et al., 2022

> <Clean Energy>
51.3223838806152

> <Reference>
Pingitore et al., 2022

> <Forcefield>
MMFF

> <ForcefieldBase>
MMFF

> <ForcefieldFFML>
<?xml version="1.0" encoding="UTF-8"?>
<!DOCTYPE ffml SYSTEM "Ffml.dtd">
<ffml version="1.0">
<forcefield name="7m Pingitore et al., 2022-MMFF" derivedFrom="MMFF" base="MMFF">
<atomTypes>
<atomType
 name="C100"
 element="C"
 mass="12.011"
 annotation=""/>
<atomType
 name="N101"
 element="N"
 mass="14.007"
 annotation=""/>
<atomType
 name="O102"
 element="O"
 mass="16"
 annotation=""/>
<atomType
 name="S103"
 element="S"
 mass="32.066"
 annotation=""/>
<atomType
 name="H104"
 element="H"
 mass="1.008"
 annotation=""/>
</atomTypes>
<parameters>
</parameters>
</forcefield>
</ffml>

$$$$
7n Pingitore et al., 2022
  SciTegic07212313593D

 64 65  0  0  0  0            999 V2000
   24.0884  -35.0134   -0.3252 C   0  0  2  0  0  0
   24.4936  -36.3795    0.2741 C   0  0  2  0  0  0
   25.8319  -36.5476   -0.3801 C   0  0  1  0  0  0
   26.4204  -35.2239    0.1903 C   0  0  2  0  0  0
   25.3651  -34.2279   -0.2522 N   0  0
   26.5462  -37.7099    0.0474 O   0  0
   22.8561  -34.4256    0.3860 C   0  0
   27.8574  -34.9498   -0.2970 C   0  0
   23.5279  -37.4061    0.0249 O   0  0
   21.7479  -35.3192    0.2328 O   0  0
   28.7491  -35.9707    0.1392 N   0  0
   30.0553  -35.7670    0.0158 C   0  0
   31.0286  -36.8156    0.4619 C   0  0
   30.4670  -34.7043   -0.4643 O   0  0
   25.2941  -32.7464    0.1520 C   0  0
   26.5916  -31.9141   -0.1652 C   0  0
   26.4596  -30.4032    0.1993 C   0  0
   27.8207  -29.6900   -0.1041 C   0  0
   27.7538  -28.1520    0.1638 C   0  0
   29.1523  -27.5089   -0.1135 C   0  0
   29.1207  -26.0621    0.0537 N   0  0
   30.3227  -25.3094   -0.0036 C   0  0
   30.2540  -23.8655    0.0625 N   0  0
   31.6756  -26.0865   -0.1583 S   0  0
   31.3643  -22.9390    0.0383 C   0  0
   32.6384  -23.3398    0.0041 C   0  0
   33.7316  -22.3583   -0.0168 C   0  0
   33.4608  -21.0554   -0.0019 C   0  0
   32.0700  -20.6031    0.0356 C   0  0
   31.0777  -21.4938    0.0551 C   0  0
   34.4611  -20.1585   -0.0205 F   0  0
   23.8381  -35.1618   -1.3757 H   0  0
   24.6319  -36.2716    1.3498 H   0  0
   25.7500  -36.5096   -1.4663 H   0  0
   26.4208  -35.2778    1.2789 H   0  0
   26.7121  -37.6583    1.0829 H   0  0
   23.0753  -34.2964    1.4459 H   0  0
   22.6082  -33.4599   -0.0546 H   0  0
   27.8632  -34.9136   -1.3864 H   0  0
   28.1915  -33.9914    0.1007 H   0  0
   22.6074  -37.1319    0.4491 H   0  0
   21.5369  -35.4441   -0.7882 H   0  0
   28.3747  -36.8818    0.5572 H   0  0
   32.0458  -36.4682    0.2811 H   0  0
   30.8545  -37.7350   -0.0971 H   0  0
   30.8945  -37.0072    1.5265 H   0  0
   24.4595  -32.2893   -0.3798 H   0  0
   25.1128  -32.6960    1.2256 H   0  0
   27.4206  -32.3358    0.4030 H   0  0
   26.8027  -31.9954   -1.2315 H   0  0
   25.6678  -29.9503   -0.3974 H   0  0
   26.2209  -30.3014    1.2580 H   0  0
   28.5932  -30.1236    0.5310 H   0  0
   28.0764  -29.8530   -1.1510 H   0  0
   27.0107  -27.7014   -0.4941 H   0  0
   27.4739  -27.9768    1.2026 H   0  0
   29.8788  -27.9294    0.5818 H   0  0
   29.4511  -27.7401   -1.1360 H   0  0
   28.1880  -25.5651    0.2204 H   0  0
   29.2764  -23.4371    0.1372 H   0  0
   32.8689  -24.4050   -0.0083 H   0  0
   34.7669  -22.6982   -0.0447 H   0  0
   31.8445  -19.5368    0.0476 H   0  0
   30.0440  -21.1491    0.0838 H   0  0
  1  2  1  0
  2  3  1  0
  3  4  1  0
  4  5  1  0
  5  1  1  0
  3  6  1  0
  1  7  1  0
  4  8  1  0
  2  9  1  0
  7 10  1  0
  8 11  1  0
 11 12  1  0
 12 13  1  0
 12 14  2  0
  5 15  1  0
 15 16  1  0
 16 17  1  0
 17 18  1  0
 18 19  1  0
 19 20  1  0
 20 21  1  0
 21 22  1  0
 22 23  1  0
 22 24  2  0
 23 25  1  0
 25 26  2  0
 26 27  1  0
 27 28  2  0
 28 29  1  0
 29 30  2  0
 30 25  1  0
 28 31  1  0
  1 32  1  0
  2 33  1  0
  3 34  1  0
  4 35  1  0
  6 36  1  0
  7 37  1  0
  7 38  1  0
  8 39  1  0
  8 40  1  0
  9 41  1  0
 10 42  1  0
 11 43  1  0
 13 44  1  0
 13 45  1  0
 13 46  1  0
 15 47  1  0
 15 48  1  0
 16 49  1  0
 16 50  1  0
 17 51  1  0
 17 52  1  0
 18 53  1  0
 18 54  1  0
 19 55  1  0
 19 56  1  0
 20 57  1  0
 20 58  1  0
 21 59  1  0
 23 60  1  0
 26 61  1  0
 27 62  1  0
 29 63  1  0
 30 64  1  0
M  END
> <Name>
7n Pingitore et al., 2022

> <Clean Energy>
54.8423156738281

> <Reference>
Pingitore et al., 2022

> <Forcefield>
MMFF

> <ForcefieldBase>
MMFF

> <ForcefieldFFML>
<?xml version="1.0" encoding="UTF-8"?>
<!DOCTYPE ffml SYSTEM "Ffml.dtd">
<ffml version="1.0">
<forcefield name="7n Pingitore et al., 2022-MMFF" derivedFrom="MMFF" base="MMFF">
<atomTypes>
<atomType
 name="C100"
 element="C"
 mass="12.011"
 annotation=""/>
<atomType
 name="N101"
 element="N"
 mass="14.007"
 annotation=""/>
<atomType
 name="O102"
 element="O"
 mass="16"
 annotation=""/>
<atomType
 name="S103"
 element="S"
 mass="32.066"
 annotation=""/>
<atomType
 name="F104"
 element="F"
 mass="18.998"
 annotation=""/>
<atomType
 name="H105"
 element="H"
 mass="1.008"
 annotation=""/>
</atomTypes>
<parameters>
</parameters>
</forcefield>
</ffml>

$$$$
7o Pingitore et al., 2022
  SciTegic07212313593D

 67 68  0  0  0  0            999 V2000
   24.7121  -34.0848   -0.3229 C   0  0  2  0  0  0
   25.1092  -35.4587    0.2703 C   0  0  2  0  0  0
   26.4461  -35.6312   -0.3802 C   0  0  1  0  0  0
   27.0428  -34.3113    0.1975 C   0  0  2  0  0  0
   25.9981  -33.3045   -0.2437 N   0  0
   27.1520  -36.8005    0.0441 O   0  0
   23.4821  -33.5011    0.3947 C   0  0
   28.4796  -34.0471   -0.2879 C   0  0
   24.1386  -36.4801    0.0147 O   0  0
   22.3722  -34.3933    0.2347 O   0  0
   29.3601  -35.0790    0.1438 N   0  0
   30.6678  -34.8912    0.0158 C   0  0
   31.6298  -35.9521    0.4569 C   0  0
   31.0903  -33.8329   -0.4645 O   0  0
   25.9444  -31.8091    0.1474 C   0  0
   27.2593  -30.9812   -0.1667 C   0  0
   27.1439  -29.4522    0.1810 C   0  0
   28.5204  -28.7385   -0.1159 C   0  0
   28.4700  -27.1836    0.1356 C   0  0
   29.8850  -26.5408   -0.1320 C   0  0
   29.8731  -25.0786    0.0195 N   0  0
   31.0942  -24.3291   -0.0271 C   0  0
   31.0469  -22.8746    0.0267 N   0  0
   32.4426  -25.1187   -0.1524 S   0  0
   32.1785  -21.9553    0.0244 C   0  0
   33.4491  -22.3711    0.0210 C   0  0
   34.5588  -21.3994    0.0253 C   0  0
   34.3076  -20.0920    0.0329 C   0  0
   32.9200  -19.6229    0.0356 C   0  0
   31.9145  -20.5015    0.0320 C   0  0
   35.4473  -19.0985    0.0417 C   0  0
   36.5736  -19.6618    0.6081 F   0  0
   35.0692  -17.9372    0.6854 F   0  0
   35.7458  -18.7739   -1.2659 F   0  0
   24.4608  -34.2253   -1.3742 H   0  0
   25.2460  -35.3570    1.3469 H   0  0
   26.3669  -35.5883   -1.4664 H   0  0
   27.0417  -34.3688    1.2860 H   0  0
   27.3151  -36.7547    1.0804 H   0  0
   23.7025  -33.3811    1.4554 H   0  0
   23.2347  -32.5315   -0.0375 H   0  0
   28.4860  -34.0052   -1.3771 H   0  0
   28.8226  -33.0940    0.1148 H   0  0
   23.2188  -36.2037    0.4390 H   0  0
   22.1603  -34.5093   -0.7872 H   0  0
   28.9762  -35.9860    0.5621 H   0  0
   32.6505  -35.6170    0.2728 H   0  0
   31.4424  -36.8686   -0.1027 H   0  0
   31.4972  -36.1435    1.5217 H   0  0
   25.1185  -31.3484   -0.3947 H   0  0
   25.7554  -31.7476    1.2192 H   0  0
   28.0790  -31.4047    0.4137 H   0  0
   27.4794  -31.0762   -1.2301 H   0  0
   26.3615  -28.9994   -0.4281 H   0  0
   26.8957  -29.3376    1.2362 H   0  0
   29.2833  -29.1711    0.5314 H   0  0
   28.7855  -28.9139   -1.1584 H   0  0
   27.7381  -26.7343   -0.5356 H   0  0
   28.1793  -26.9957    1.1692 H   0  0
   30.5996  -26.9603    0.5761 H   0  0
   30.1938  -26.7849   -1.1484 H   0  0
   28.9439  -24.5687    0.1659 H   0  0
   30.0740  -22.4316    0.0730 H   0  0
   33.6671  -23.4391    0.0150 H   0  0
   35.5897  -21.7535    0.0223 H   0  0
   32.7077  -18.5538    0.0406 H   0  0
   30.8856  -20.1416    0.0347 H   0  0
  1  2  1  0
  2  3  1  0
  3  4  1  0
  4  5  1  0
  5  1  1  0
  3  6  1  0
  1  7  1  0
  4  8  1  0
  2  9  1  0
  7 10  1  0
  8 11  1  0
 11 12  1  0
 12 13  1  0
 12 14  2  0
  5 15  1  0
 15 16  1  0
 16 17  1  0
 17 18  1  0
 18 19  1  0
 19 20  1  0
 20 21  1  0
 21 22  1  0
 22 23  1  0
 22 24  2  0
 23 25  1  0
 25 26  2  0
 26 27  1  0
 27 28  2  0
 28 29  1  0
 29 30  2  0
 30 25  1  0
 28 31  1  0
 31 32  1  0
 31 33  1  0
 31 34  1  0
  1 35  1  0
  2 36  1  0
  3 37  1  0
  4 38  1  0
  6 39  1  0
  7 40  1  0
  7 41  1  0
  8 42  1  0
  8 43  1  0
  9 44  1  0
 10 45  1  0
 11 46  1  0
 13 47  1  0
 13 48  1  0
 13 49  1  0
 15 50  1  0
 15 51  1  0
 16 52  1  0
 16 53  1  0
 17 54  1  0
 17 55  1  0
 18 56  1  0
 18 57  1  0
 19 58  1  0
 19 59  1  0
 20 60  1  0
 20 61  1  0
 21 62  1  0
 23 63  1  0
 26 64  1  0
 27 65  1  0
 29 66  1  0
 30 67  1  0
M  END
> <Name>
7o Pingitore et al., 2022

> <Clean Energy>
67.9206466674805

> <Reference>
Pingitore et al., 2022

> <Forcefield>
MMFF

> <ForcefieldBase>
MMFF

> <ForcefieldFFML>
<?xml version="1.0" encoding="UTF-8"?>
<!DOCTYPE ffml SYSTEM "Ffml.dtd">
<ffml version="1.0">
<forcefield name="7o Pingitore et al., 2022-MMFF" derivedFrom="MMFF" base="MMFF">
<atomTypes>
<atomType
 name="C100"
 element="C"
 mass="12.011"
 annotation=""/>
<atomType
 name="N101"
 element="N"
 mass="14.007"
 annotation=""/>
<atomType
 name="O102"
 element="O"
 mass="16"
 annotation=""/>
<atomType
 name="S103"
 element="S"
 mass="32.066"
 annotation=""/>
<atomType
 name="F104"
 element="F"
 mass="18.998"
 annotation=""/>
<atomType
 name="H105"
 element="H"
 mass="1.008"
 annotation=""/>
</atomTypes>
<parameters>
</parameters>
</forcefield>
</ffml>

$$$$
7p Pingitore et al., 2022
  SciTegic07212313593D

 64 65  0  0  0  0            999 V2000
   24.0851  -35.0230   -0.3258 C   0  0  2  0  0  0
   24.4917  -36.3875    0.2752 C   0  0  2  0  0  0
   25.8302  -36.5551   -0.3797 C   0  0  1  0  0  0
   26.4174  -35.2305    0.1886 C   0  0  2  0  0  0
   25.3603  -34.2364   -0.2543 N   0  0
   26.5459  -37.7161    0.0487 O   0  0
   22.8524  -34.4342    0.3841 C   0  0
   27.8544  -34.9551   -0.2991 C   0  0
   23.5269  -37.4152    0.0278 O   0  0
   21.7445  -35.3282    0.2327 O   0  0
   28.7471  -35.9749    0.1383 N   0  0
   30.0533  -35.7705    0.0157 C   0  0
   31.0269  -36.8182    0.4634 C   0  0
   30.4649  -34.7079   -0.4648 O   0  0
   25.2863  -32.7570    0.1520 C   0  0
   26.5808  -31.9231   -0.1656 C   0  0
   26.4449  -30.4147    0.2009 C   0  0
   27.8030  -29.6999   -0.1040 C   0  0
   27.7326  -28.1638    0.1652 C   0  0
   29.1288  -27.5202   -0.1147 C   0  0
   29.0943  -26.0743    0.0535 N   0  0
   30.2992  -25.3247   -0.0049 C   0  0
   30.2254  -23.8789    0.0623 N   0  0
   31.6465  -26.1004   -0.1608 S   0  0
   31.3424  -22.9569    0.0386 C   0  0
   32.6086  -23.3563    0.0055 C   0  0
   33.7067  -22.3789   -0.0146 C   0  0
   33.4366  -21.0745    0.0008 C   0  0
   32.0478  -20.6204    0.0373 C   0  0
   31.0516  -21.5095    0.0560 C   0  0
   34.8572  -19.8075   -0.0238 Br  0  0
   23.8350  -35.1734   -1.3760 H   0  0
   24.6306  -36.2780    1.3508 H   0  0
   25.7476  -36.5185   -1.4660 H   0  0
   26.4182  -35.2833    1.2773 H   0  0
   26.7125  -37.6630    1.0840 H   0  0
   23.0714  -34.3028    1.4438 H   0  0
   22.6043  -33.4695   -0.0585 H   0  0
   27.8602  -34.9201   -1.3886 H   0  0
   28.1875  -33.9961    0.0975 H   0  0
   22.6063  -37.1410    0.4520 H   0  0
   21.5336  -35.4552   -0.7881 H   0  0
   28.3732  -36.8860    0.5568 H   0  0
   32.0441  -36.4705    0.2832 H   0  0
   30.8538  -37.7382   -0.0950 H   0  0
   30.8920  -37.0091    1.5281 H   0  0
   24.4502  -32.3008   -0.3779 H   0  0
   25.1064  -32.7085    1.2260 H   0  0
   27.4114  -32.3438    0.4012 H   0  0
   26.7908  -32.0027   -1.2322 H   0  0
   25.6511  -29.9629   -0.3939 H   0  0
   26.2077  -30.3147    1.2601 H   0  0
   28.5774  -30.1323    0.5294 H   0  0
   28.0574  -29.8615   -1.1515 H   0  0
   26.9874  -27.7140   -0.4909 H   0  0
   27.4545  -27.9898    1.2047 H   0  0
   29.8574  -27.9399    0.5789 H   0  0
   29.4259  -27.7504   -1.1379 H   0  0
   28.1619  -25.5769    0.2211 H   0  0
   29.2482  -23.4496    0.1368 H   0  0
   32.8366  -24.4221   -0.0071 H   0  0
   34.7412  -22.7213   -0.0419 H   0  0
   31.8247  -19.5535    0.0494 H   0  0
   30.0179  -21.1647    0.0841 H   0  0
  1  2  1  0
  2  3  1  0
  3  4  1  0
  4  5  1  0
  5  1  1  0
  3  6  1  0
  1  7  1  0
  4  8  1  0
  2  9  1  0
  7 10  1  0
  8 11  1  0
 11 12  1  0
 12 13  1  0
 12 14  2  0
  5 15  1  0
 15 16  1  0
 16 17  1  0
 17 18  1  0
 18 19  1  0
 19 20  1  0
 20 21  1  0
 21 22  1  0
 22 23  1  0
 22 24  2  0
 23 25  1  0
 25 26  2  0
 26 27  1  0
 27 28  2  0
 28 29  1  0
 29 30  2  0
 30 25  1  0
 28 31  1  0
  1 32  1  0
  2 33  1  0
  3 34  1  0
  4 35  1  0
  6 36  1  0
  7 37  1  0
  7 38  1  0
  8 39  1  0
  8 40  1  0
  9 41  1  0
 10 42  1  0
 11 43  1  0
 13 44  1  0
 13 45  1  0
 13 46  1  0
 15 47  1  0
 15 48  1  0
 16 49  1  0
 16 50  1  0
 17 51  1  0
 17 52  1  0
 18 53  1  0
 18 54  1  0
 19 55  1  0
 19 56  1  0
 20 57  1  0
 20 58  1  0
 21 59  1  0
 23 60  1  0
 26 61  1  0
 27 62  1  0
 29 63  1  0
 30 64  1  0
M  END
> <Name>
7p Pingitore et al., 2022

> <Clean Energy>
54.7500419616699

> <Reference>
Pingitore et al., 2022

> <Forcefield>
MMFF

> <ForcefieldBase>
MMFF

> <ForcefieldFFML>
<?xml version="1.0" encoding="UTF-8"?>
<!DOCTYPE ffml SYSTEM "Ffml.dtd">
<ffml version="1.0">
<forcefield name="7p Pingitore et al., 2022-MMFF" derivedFrom="MMFF" base="MMFF">
<atomTypes>
<atomType
 name="C100"
 element="C"
 mass="12.011"
 annotation=""/>
<atomType
 name="N101"
 element="N"
 mass="14.007"
 annotation=""/>
<atomType
 name="O102"
 element="O"
 mass="16"
 annotation=""/>
<atomType
 name="S103"
 element="S"
 mass="32.066"
 annotation=""/>
<atomType
 name="Br104"
 element="Br"
 mass="79.904"
 annotation=""/>
<atomType
 name="H105"
 element="H"
 mass="1.008"
 annotation=""/>
</atomTypes>
<parameters>
</parameters>
</forcefield>
</ffml>

$$$$
7q Pingitore et al., 2022
  SciTegic07212313593D

 78 81  0  0  0  0            999 V2000
   24.5532  -34.4041   -0.3308 C   0  0  2  0  0  0
   24.9522  -35.7710    0.2737 C   0  0  2  0  0  0
   26.2931  -35.9449   -0.3694 C   0  0  1  0  0  0
   26.8829  -34.6192    0.2000 C   0  0  2  0  0  0
   25.8333  -33.6222   -0.2528 N   0  0
   27.0008  -37.1079    0.0655 O   0  0
   23.3201  -33.8157    0.3778 C   0  0
   28.3229  -34.3572   -0.2819 C   0  0
   23.9856  -36.7965    0.0223 O   0  0
   22.2113  -34.7085    0.2208 O   0  0
   29.2051  -35.3833    0.1597 N   0  0
   30.5103  -35.2078    0.0256 C   0  0
   31.4720  -36.2623    0.4756 C   0  0
   30.9383  -34.1527   -0.4752 O   0  0
   25.7676  -32.1285    0.1208 C   0  0
   27.0746  -31.3090   -0.2055 C   0  0
   26.9585  -29.7819    0.1135 C   0  0
   28.3361  -29.0970   -0.2043 C   0  0
   28.3094  -27.5453    0.0133 C   0  0
   29.7315  -26.9465   -0.2784 C   0  0
   29.7549  -25.4940   -0.1374 N   0  0
   30.9812  -24.7745   -0.1517 C   0  0
   30.9912  -23.3526    0.0013 N   0  0
   32.0508  -25.4097   -0.2751 O   0  0
   33.0634  -20.1578    0.5210 C   0  0  2  0  0  0
   34.4769  -22.1637    1.1585 C   0  0  1  0  0  0
   32.2039  -22.5143    0.0498 C   0  0
   34.1622  -21.5595   -1.2836 C   0  0  1  0  0  0
   34.0600  -20.7244    1.5720 C   0  0
   31.7974  -21.0654    0.4565 C   0  0
   33.2154  -23.0753    1.1022 C   0  0
   33.7469  -20.1166   -0.8741 C   0  0
   35.1618  -22.1276   -0.2371 C   0  0
   32.8958  -22.4745   -1.3518 C   0  0
   24.3060  -34.5532   -1.3818 H   0  0
   25.0840  -35.6606    1.3501 H   0  0
   26.2184  -35.9103   -1.4563 H   0  0
   26.8776  -34.6685    1.2889 H   0  0
   27.1596  -37.0544    1.1020 H   0  0
   23.5366  -33.6876    1.4383 H   0  0
   23.0741  -32.8494   -0.0627 H   0  0
   28.3331  -34.3235   -1.3713 H   0  0
   28.6626  -33.4005    0.1149 H   0  0
   23.0636  -36.5194    0.4414 H   0  0
   22.0029  -34.8324   -0.8008 H   0  0
   28.8193  -36.2823    0.5933 H   0  0
   32.4921  -35.9313    0.2810 H   0  0
   31.2801  -37.1864   -0.0697 H   0  0
   31.3454  -36.4382    1.5439 H   0  0
   24.9393  -31.6780   -0.4262 H   0  0
   25.5793  -32.0546    1.1918 H   0  0
   27.8944  -31.7214    0.3826 H   0  0
   27.2952  -31.4224   -1.2669 H   0  0
   26.1767  -29.3368   -0.5020 H   0  0
   26.7147  -29.6445    1.1669 H   0  0
   29.0966  -29.5266    0.4477 H   0  0
   28.5927  -29.2980   -1.2444 H   0  0
   27.5817  -27.0970   -0.6632 H   0  0
   28.0295  -27.3287    1.0442 H   0  0
   30.4454  -27.3791    0.4225 H   0  0
   30.0195  -27.2052   -1.2973 H   0  0
   28.8339  -24.9617   -0.0214 H   0  0
   30.0459  -22.8587    0.0871 H   0  0
   32.7698  -19.1484    0.8092 H   0  0
   35.1768  -22.5615    1.8933 H   0  0
   34.6411  -21.5330   -2.2624 H   0  0
   34.9436  -20.0877    1.6163 H   0  0
   33.5811  -20.7509    2.5508 H   0  0
   31.3173  -21.0860    1.4349 H   0  0
   31.1025  -20.6645   -0.2814 H   0  0
   33.5111  -24.0851    0.8175 H   0  0
   32.7413  -23.0980    2.0835 H   0  0
   33.0497  -19.7154   -1.6098 H   0  0
   34.6319  -19.4820   -0.8277 H   0  0
   36.0447  -21.4899   -0.1932 H   0  0
   35.4559  -23.1369   -0.5248 H   0  0
   33.1920  -23.4833   -1.6392 H   0  0
   32.1992  -22.0757   -2.0893 H   0  0
  1  2  1  0
  2  3  1  0
  3  4  1  0
  4  5  1  0
  5  1  1  0
  3  6  1  0
  1  7  1  0
  4  8  1  0
  2  9  1  0
  7 10  1  0
  8 11  1  0
 11 12  1  0
 12 13  1  0
 12 14  2  0
  5 15  1  0
 15 16  1  0
 16 17  1  0
 17 18  1  0
 18 19  1  0
 19 20  1  0
 20 21  1  0
 21 22  1  0
 22 23  1  0
 22 24  2  0
 25 29  1  0
 25 30  1  0
 25 32  1  0
 26 29  1  0
 26 31  1  0
 26 33  1  0
 27 30  1  0
 27 31  1  0
 27 34  1  0
 28 32  1  0
 28 33  1  0
 28 34  1  0
 23 27  1  0
  1 35  1  0
  2 36  1  0
  3 37  1  0
  4 38  1  0
  6 39  1  0
  7 40  1  0
  7 41  1  0
  8 42  1  0
  8 43  1  0
  9 44  1  0
 10 45  1  0
 11 46  1  0
 13 47  1  0
 13 48  1  0
 13 49  1  0
 15 50  1  0
 15 51  1  0
 16 52  1  0
 16 53  1  0
 17 54  1  0
 17 55  1  0
 18 56  1  0
 18 57  1  0
 19 58  1  0
 19 59  1  0
 20 60  1  0
 20 61  1  0
 21 62  1  0
 23 63  1  0
 25 64  1  0
 26 65  1  0
 28 66  1  0
 29 67  1  0
 29 68  1  0
 30 69  1  0
 30 70  1  0
 31 71  1  0
 31 72  1  0
 32 73  1  0
 32 74  1  0
 33 75  1  0
 33 76  1  0
 34 77  1  0
 34 78  1  0
M  END
> <Name>
7q Pingitore et al., 2022

> <Clean Energy>
58.7672386169434

> <Reference>
Pingitore et al., 2022

> <Forcefield>
MMFF

> <ForcefieldBase>
MMFF

> <ForcefieldFFML>
<?xml version="1.0" encoding="UTF-8"?>
<!DOCTYPE ffml SYSTEM "Ffml.dtd">
<ffml version="1.0">
<forcefield name="7q Pingitore et al., 2022-MMFF" derivedFrom="MMFF" base="MMFF">
<atomTypes>
<atomType
 name="C100"
 element="C"
 mass="12.011"
 annotation=""/>
<atomType
 name="N101"
 element="N"
 mass="14.007"
 annotation=""/>
<atomType
 name="O102"
 element="O"
 mass="16"
 annotation=""/>
<atomType
 name="H103"
 element="H"
 mass="1.008"
 annotation=""/>
</atomTypes>
<parameters>
</parameters>
</forcefield>
</ffml>

$$$$
7r Pingitore et al., 2022
  SciTegic07212313593D

 72 72  0  0  0  0            999 V2000
   23.8510  -34.8887   -0.3274 C   0  0  2  0  0  0
   24.2560  -36.2523    0.2756 C   0  0  2  0  0  0
   25.5948  -36.4225   -0.3778 C   0  0  1  0  0  0
   26.1823  -35.0962    0.1885 C   0  0  2  0  0  0
   25.1272  -34.1025   -0.2566 N   0  0
   26.3088  -37.5831    0.0528 O   0  0
   22.6182  -34.2980    0.3807 C   0  0
   27.6198  -34.8244   -0.2965 C   0  0
   23.2906  -37.2799    0.0296 O   0  0
   21.5098  -35.1917    0.2305 O   0  0
   28.5076  -35.8471    0.1436 N   0  0
   29.8128  -35.6618    0.0172 C   0  0
   30.7785  -36.7129    0.4677 C   0  0
   30.2365  -34.6020   -0.4751 O   0  0
   25.0530  -32.6228    0.1496 C   0  0
   26.3459  -31.7831   -0.1661 C   0  0
   26.1950  -30.2741    0.2006 C   0  0
   27.5419  -29.5342   -0.1033 C   0  0
   27.4376  -27.9985    0.1699 C   0  0
   28.8145  -27.3113   -0.1105 C   0  0
   28.7338  -25.8664    0.0664 N   0  0
   29.9059  -25.0696   -0.0123 C   0  0
   29.8358  -23.6621    0.1123 N   0  0
   31.0003  -25.6079   -0.2139 O   0  0
   31.0456  -22.8672    0.0086 C   0  0
   30.7228  -21.3509    0.0828 C   0  0
   32.0383  -20.5355   -0.0192 C   0  0
   31.7400  -19.0189    0.0474 C   0  0
   33.0641  -18.2269   -0.0474 C   0  0
   32.7752  -16.7131    0.0150 C   0  0
   23.6014  -35.0405   -1.3775 H   0  0
   24.3942  -36.1411    1.3511 H   0  0
   25.5130  -36.3877   -1.4641 H   0  0
   26.1815  -35.1471    1.2774 H   0  0
   26.4746  -37.5286    1.0882 H   0  0
   22.8368  -34.1647    1.4403 H   0  0
   22.3708  -33.3340   -0.0638 H   0  0
   27.6280  -34.7897   -1.3859 H   0  0
   27.9549  -33.8662    0.1005 H   0  0
   22.3700  -37.0045    0.4530 H   0  0
   21.2993  -35.3205   -0.7901 H   0  0
   28.1261  -36.7514    0.5698 H   0  0
   31.7977  -36.3749    0.2805 H   0  0
   30.5953  -37.6355   -0.0833 H   0  0
   30.6468  -36.8950    1.5343 H   0  0
   24.2162  -32.1679   -0.3806 H   0  0
   24.8724  -32.5752    1.2235 H   0  0
   27.1774  -32.1978    0.4038 H   0  0
   26.5600  -31.8620   -1.2319 H   0  0
   25.3946  -29.8328   -0.3932 H   0  0
   25.9574  -30.1783    1.2600 H   0  0
   28.3243  -29.9523    0.5300 H   0  0
   27.8003  -29.6889   -1.1509 H   0  0
   26.6789  -27.5665   -0.4827 H   0  0
   27.1580  -27.8353    1.2108 H   0  0
   29.5576  -27.7120    0.5789 H   0  0
   29.1159  -27.5266   -1.1357 H   0  0
   27.7874  -25.4048    0.2564 H   0  0
   28.8934  -23.1850    0.2826 H   0  0
   31.7155  -23.1294    0.8274 H   0  0
   31.5324  -23.0817   -0.9428 H   0  0
   30.0627  -21.0796   -0.7410 H   0  0
   30.2315  -21.1303    1.0305 H   0  0
   32.6949  -20.8088    0.8067 H   0  0
   32.5294  -20.7634   -0.9653 H   0  0
   31.0901  -18.7400   -0.7820 H   0  0
   31.2455  -18.7874    0.9908 H   0  0
   33.7123  -18.5056    0.7834 H   0  0
   33.5590  -18.4618   -0.9897 H   0  0
   33.7125  -16.1608   -0.0524 H   0  0
   32.2810  -16.4756    0.9571 H   0  0
   32.1278  -16.4317   -0.8155 H   0  0
  1  2  1  0
  2  3  1  0
  3  4  1  0
  4  5  1  0
  5  1  1  0
  3  6  1  0
  1  7  1  0
  4  8  1  0
  2  9  1  0
  7 10  1  0
  8 11  1  0
 11 12  1  0
 12 13  1  0
 12 14  2  0
  5 15  1  0
 15 16  1  0
 16 17  1  0
 17 18  1  0
 18 19  1  0
 19 20  1  0
 20 21  1  0
 21 22  1  0
 22 23  1  0
 22 24  2  0
 23 25  1  0
 25 26  1  0
 26 27  1  0
 27 28  1  0
 28 29  1  0
 29 30  1  0
  1 31  1  0
  2 32  1  0
  3 33  1  0
  4 34  1  0
  6 35  1  0
  7 36  1  0
  7 37  1  0
  8 38  1  0
  8 39  1  0
  9 40  1  0
 10 41  1  0
 11 42  1  0
 13 43  1  0
 13 44  1  0
 13 45  1  0
 15 46  1  0
 15 47  1  0
 16 48  1  0
 16 49  1  0
 17 50  1  0
 17 51  1  0
 18 52  1  0
 18 53  1  0
 19 54  1  0
 19 55  1  0
 20 56  1  0
 20 57  1  0
 21 58  1  0
 23 59  1  0
 25 60  1  0
 25 61  1  0
 26 62  1  0
 26 63  1  0
 27 64  1  0
 27 65  1  0
 28 66  1  0
 28 67  1  0
 29 68  1  0
 29 69  1  0
 30 70  1  0
 30 71  1  0
 30 72  1  0
M  END
> <Name>
7r Pingitore et al., 2022

> <Clean Energy>
51.5899314880371

> <Reference>
Pingitore et al., 2022

> <Forcefield>
MMFF

> <ForcefieldBase>
MMFF

> <ForcefieldFFML>
<?xml version="1.0" encoding="UTF-8"?>
<!DOCTYPE ffml SYSTEM "Ffml.dtd">
<ffml version="1.0">
<forcefield name="7r Pingitore et al., 2022-MMFF" derivedFrom="MMFF" base="MMFF">
<atomTypes>
<atomType
 name="C100"
 element="C"
 mass="12.011"
 annotation=""/>
<atomType
 name="N101"
 element="N"
 mass="14.007"
 annotation=""/>
<atomType
 name="O102"
 element="O"
 mass="16"
 annotation=""/>
<atomType
 name="H103"
 element="H"
 mass="1.008"
 annotation=""/>
</atomTypes>
<parameters>
</parameters>
</forcefield>
</ffml>

$$$$
7s Pingitore et al., 2022
  SciTegic07212313593D

 70 71  0  0  0  0            999 V2000
   23.8845  -35.3338   -0.3236 C   0  0  2  0  0  0
   24.2907  -36.6947    0.2803 C   0  0  2  0  0  0
   25.6278  -36.8672   -0.3822 C   0  0  1  0  0  0
   26.2175  -35.5426    0.1776 C   0  0  2  0  0  0
   25.1591  -34.5474   -0.2605 N   0  0
   26.3439  -38.0269    0.0461 O   0  0
   22.6524  -34.7356    0.3793 C   0  0
   27.6547  -35.2691   -0.3103 C   0  0
   23.3239  -37.7219    0.0399 O   0  0
   21.5426  -35.6281    0.2346 O   0  0
   28.5472  -36.2870    0.1298 N   0  0
   29.8509  -36.0917    0.0145 C   0  0
   30.8230  -37.1358    0.4655 C   0  0
   30.2701  -35.0236   -0.4694 O   0  0
   25.0910  -33.0810    0.1795 C   0  0
   26.3703  -32.2421   -0.1690 C   0  0
   26.2638  -30.7548    0.2705 C   0  0
   27.5994  -30.0338   -0.0968 C   0  0
   27.5679  -28.5235    0.2812 C   0  0
   28.9293  -27.8633   -0.0994 C   0  0
   28.9224  -26.4435    0.2035 N   0  0
   30.0398  -25.6406   -0.1333 C   0  0
   29.9946  -24.2386    0.1058 N   0  0
   31.0165  -26.1562   -0.6789 O   0  0
   31.0844  -23.3446   -0.2730 C   0  0
   32.4174  -23.7577    0.4024 C   0  0
   33.5431  -22.7904   -0.0328 C   0  0
   33.1828  -21.3510    0.3931 C   0  0
   31.8591  -20.9319   -0.2805 C   0  0
   30.7278  -21.8971    0.1456 C   0  0
   23.6339  -35.4897   -1.3729 H   0  0
   24.4346  -36.5818    1.3548 H   0  0
   25.5395  -36.8343   -1.4681 H   0  0
   26.2211  -35.5934    1.2664 H   0  0
   26.5162  -37.9703    1.0804 H   0  0
   22.8703  -34.5953    1.4380 H   0  0
   22.4072  -33.7744   -0.0723 H   0  0
   27.6607  -35.2371   -1.3999 H   0  0
   27.9877  -34.3089    0.0837 H   0  0
   22.4050  -37.4450    0.4660 H   0  0
   21.3326  -35.7638   -0.7853 H   0  0
   28.1694  -37.1968    0.5476 H   0  0
   31.8402  -36.7871    0.2870 H   0  0
   30.6522  -38.0569   -0.0918 H   0  0
   30.6859  -37.3250    1.5302 H   0  0
   24.2349  -32.6172   -0.3105 H   0  0
   24.9499  -33.0552    1.2600 H   0  0
   27.2270  -32.6914    0.3334 H   0  0
   26.5229  -32.2746   -1.2478 H   0  0
   25.4330  -30.2766   -0.2483 H   0  0
   26.1003  -30.7002    1.3468 H   0  0
   28.4178  -30.5140    0.4396 H   0  0
   27.7650  -30.1247   -1.1703 H   0  0
   26.7610  -28.0303   -0.2608 H   0  0
   27.4017  -28.4210    1.3536 H   0  0
   29.7284  -28.3440    0.4650 H   0  0
   29.1050  -27.9990   -1.1665 H   0  0
   28.0725  -26.0032    0.6816 H   0  0
   29.1298  -23.8245    0.5808 H   0  0
   31.2105  -23.3791   -1.3552 H   0  0
   32.3027  -23.7165    1.4855 H   0  0
   32.6761  -24.7732    0.1023 H   0  0
   34.4786  -23.0857    0.4424 H   0  0
   33.6569  -22.8303   -1.1161 H   0  0
   33.0678  -21.3106    1.4763 H   0  0
   33.9778  -20.6714    0.0860 H   0  0
   31.6032  -19.9171    0.0242 H   0  0
   31.9769  -20.9678   -1.3636 H   0  0
   30.6045  -21.8539    1.2277 H   0  0
   29.7977  -21.5997   -0.3387 H   0  0
  1  2  1  0
  2  3  1  0
  3  4  1  0
  4  5  1  0
  5  1  1  0
  3  6  1  0
  1  7  1  0
  4  8  1  0
  2  9  1  0
  7 10  1  0
  8 11  1  0
 11 12  1  0
 12 13  1  0
 12 14  2  0
  5 15  1  0
 15 16  1  0
 16 17  1  0
 17 18  1  0
 18 19  1  0
 19 20  1  0
 20 21  1  0
 21 22  1  0
 22 23  1  0
 22 24  2  0
 23 25  1  0
 25 26  1  0
 26 27  1  0
 27 28  1  0
 28 29  1  0
 29 30  1  0
 30 25  1  0
  1 31  1  0
  2 32  1  0
  3 33  1  0
  4 34  1  0
  6 35  1  0
  7 36  1  0
  7 37  1  0
  8 38  1  0
  8 39  1  0
  9 40  1  0
 10 41  1  0
 11 42  1  0
 13 43  1  0
 13 44  1  0
 13 45  1  0
 15 46  1  0
 15 47  1  0
 16 48  1  0
 16 49  1  0
 17 50  1  0
 17 51  1  0
 18 52  1  0
 18 53  1  0
 19 54  1  0
 19 55  1  0
 20 56  1  0
 20 57  1  0
 21 58  1  0
 23 59  1  0
 25 60  1  0
 26 61  1  0
 26 62  1  0
 27 63  1  0
 27 64  1  0
 28 65  1  0
 28 66  1  0
 29 67  1  0
 29 68  1  0
 30 69  1  0
 30 70  1  0
M  END
> <Name>
7s Pingitore et al., 2022

> <Clean Energy>
53.7104911804199

> <Reference>
Pingitore et al., 2022

> <Forcefield>
MMFF

> <ForcefieldBase>
MMFF

> <ForcefieldFFML>
<?xml version="1.0" encoding="UTF-8"?>
<!DOCTYPE ffml SYSTEM "Ffml.dtd">
<ffml version="1.0">
<forcefield name="7s Pingitore et al., 2022-MMFF" derivedFrom="MMFF" base="MMFF">
<atomTypes>
<atomType
 name="C100"
 element="C"
 mass="12.011"
 annotation=""/>
<atomType
 name="N101"
 element="N"
 mass="14.007"
 annotation=""/>
<atomType
 name="O102"
 element="O"
 mass="16"
 annotation=""/>
<atomType
 name="H103"
 element="H"
 mass="1.008"
 annotation=""/>
</atomTypes>
<parameters>
</parameters>
</forcefield>
</ffml>

$$$$
8a Pingitore et al., 2022
  SciTegic07212313593D

141144  0  0  0  0            999 V2000
   24.6400  -22.6840   -0.3223 C   0  0  2  0  0  0
   24.3547  -24.0898    0.2689 C   0  0  2  0  0  0
   25.4615  -24.8590   -0.3759 C   0  0  1  0  0  0
   26.6016  -23.9635    0.2070 C   0  0  2  0  0  0
   26.1478  -22.5839   -0.2354 N   0  0
   25.5437  -26.2231    0.0488 O   0  0
   23.8104  -21.6062    0.3968 C   0  0
   27.9948  -24.3998   -0.2750 C   0  0
   23.0229  -24.5498    0.0073 O   0  0
   22.4151  -21.8933    0.2299 O   0  0
   28.2811  -25.7267    0.1573 N   0  0
   29.5153  -26.1922    0.0130 C   0  0
   29.8533  -27.5837    0.4557 C   0  0
   30.3880  -25.4709   -0.4838 O   0  0
   26.8089  -21.2206    0.1425 C   0  0
   28.3746  -21.1055   -0.1659 C   0  0
   29.0324  -19.6912    0.1616 C   0  0
   30.6020  -19.7603   -0.1262 C   0  0
   31.4129  -18.3977    0.0996 C   0  0
   32.9702  -18.6670   -0.1522 C   0  0
   33.8865  -17.4867   -0.0313 N   0  0
   35.3098  -17.5464   -0.0752 C   0  0
   35.6835  -16.2876    0.0296 C   0  0
   34.5068  -15.4779    0.1337 N   0  0
   33.5074  -16.1990    0.0963 N   0  0
   62.3304  -31.8786    0.3228 C   0  0  2  0  0  0
   61.8825  -33.2401   -0.2697 C   0  0  2  0  0  0
   60.5398  -33.3612    0.3759 C   0  0  1  0  0  0
   59.9926  -32.0190   -0.2055 C   0  0  2  0  0  0
   61.0713  -31.0460    0.2370 N   0  0
   59.7928  -34.5052   -0.0494 O   0  0
   63.5846  -31.3498   -0.3944 C   0  0
   58.5652  -31.7087    0.2770 C   0  0
   62.8121  -34.2987   -0.0095 O   0  0
   64.6558  -32.2886   -0.2286 O   0  0
   57.6591  -32.7193   -0.1562 N   0  0
   56.3561  -32.5126   -0.0125 C   0  0
   55.3737  -33.5539   -0.4563 C   0  0
   55.9547  -31.4541    0.4848 O   0  0
   61.1741  -29.5379   -0.1444 C   0  0
   59.8738  -28.6659    0.1666 C   0  0
   59.9980  -27.1158   -0.1656 C   0  0
   58.5990  -26.4126    0.1277 C   0  0
   58.5511  -24.8323   -0.1020 C   0  0
   57.0605  -24.3256    0.1574 C   0  0
   56.8141  -22.8581    0.0339 N   0  0
   55.5358  -22.2372    0.0764 C   0  0
   55.7923  -20.9643   -0.0296 C   0  0
   57.2137  -20.7896   -0.1355 N   0  0
   57.7556  -21.8996   -0.0959 N   0  0
   37.1648  -15.6970    0.0453 C   0  0
   38.2883  -16.6851   -0.0173 O   0  0
   39.6367  -15.9888    0.0102 C   0  0
   40.8965  -17.0051   -0.0209 C   0  0
   42.2540  -16.3283    0.0019 O   0  0
   43.3865  -17.3332   -0.0093 C   0  0
   44.8856  -16.7006    0.0017 C   0  0
   45.9553  -17.7749   -0.0001 O   0  0
   47.3834  -17.2663   -0.0025 C   0  0
   48.4614  -18.4836    0.0092 C   0  0
   49.9160  -18.0679   -0.0028 O   0  0
   50.8409  -19.2674    0.0206 C   0  0
   52.4166  -18.9061   -0.0115 C   0  0
   53.3118  -20.1277    0.0167 O   0  0
   54.7584  -19.7498   -0.0472 C   0  0
   24.3564  -22.6902   -1.3748 H   0  0
   24.5183  -24.0640    1.3462 H   0  0
   25.4154  -24.7843   -1.4624 H   0  0
   26.5710  -24.0145    1.2954 H   0  0
   25.7044  -26.2582    1.0859 H   0  0
   24.0574  -21.6046    1.4584 H   0  0
   24.0347  -20.6288   -0.0304 H   0  0
   28.0248  -24.3634   -1.3640 H   0  0
   28.7438  -23.7208    0.1326 H   0  0
   22.3320  -23.8813    0.4295 H   0  0
   22.1776  -21.8955   -0.7929 H   0  0
   27.5155  -26.3363    0.5899 H   0  0
   30.9063  -27.7830    0.2571 H   0  0
   29.2392  -28.2989   -0.0917 H   0  0
   29.6605  -27.6826    1.5240 H   0  0
   26.2984  -20.4344   -0.4137 H   0  0
   26.6647  -21.0625    1.2113 H   0  0
   28.8905  -21.8616    0.4259 H   0  0
   28.5244  -21.3087   -1.2263 H   0  0
   28.5802  -18.9248   -0.4678 H   0  0
   28.8651  -19.4460    1.2104 H   0  0
   31.0295  -20.5167    0.5318 H   0  0
   30.7384  -20.0623   -1.1646 H   0  0
   31.0560  -17.6407   -0.5988 H   0  0
   31.2634  -18.0493    1.1215 H   0  0
   33.2971  -19.4140    0.5712 H   0  0
   33.0773  -19.0661   -1.1608 H   0  0
   35.9423  -18.4288   -0.1729 H   0  0
   62.5733  -32.0258    1.3752 H   0  0
   61.7527  -33.1354   -1.3469 H   0  0
   60.6174  -33.3201    1.4623 H   0  0
   59.9936  -32.0780   -1.2939 H   0  0
   59.6352  -34.4551   -1.0863 H   0  0
   63.3714  -31.2244   -1.4559 H   0  0
   63.8720  -30.3900    0.0349 H   0  0
   58.5572  -31.6633    1.3660 H   0  0
   58.2508  -30.7475   -0.1296 H   0  0
   63.7433  -34.0592   -0.4315 H   0  0
   64.8606  -32.4098    0.7941 H   0  0
   58.0224  -33.6278   -0.5893 H   0  0
   54.3600  -33.2058   -0.2580 H   0  0
   55.5528  -34.4797    0.0906 H   0  0
   55.4928  -33.7347   -1.5246 H   0  0
   62.0087  -29.1069    0.4086 H   0  0
   61.3745  -29.4739   -1.2139 H   0  0
   59.0491  -29.0706   -0.4201 H   0  0
   59.6481  -28.7654    1.2284 H   0  0
   60.7707  -26.6683    0.4596 H   0  0
   60.2596  -26.9864   -1.2158 H   0  0
   57.8534  -26.8675   -0.5244 H   0  0
   58.3394  -26.6068    1.1684 H   0  0
   59.2323  -24.3396    0.5919 H   0  0
   58.8445  -24.6010   -1.1259 H   0  0
   56.4123  -24.8295   -0.5595 H   0  0
   56.7836  -24.6218    1.1692 H   0  0
   54.5622  -22.7172    0.1752 H   0  0
   37.2631  -15.0318   -0.8126 H   0  0
   37.2811  -15.1240    0.9652 H   0  0
   39.7027  -15.3330   -0.8580 H   0  0
   39.6976  -15.3935    0.9212 H   0  0
   40.8277  -17.6584    0.8490 H   0  0
   40.8294  -17.6020   -0.9304 H   0  0
   43.2827  -17.9656    0.8724 H   0  0
   43.2859  -17.9421   -0.9077 H   0  0
   45.0111  -16.0778   -0.8840 H   0  0
   45.0028  -16.0890    0.8963 H   0  0
   47.5413  -16.6647   -0.8976 H   0  0
   47.5390  -16.6496    0.8826 H   0  0
   48.2891  -19.0755    0.9082 H   0  0
   48.2813  -19.0995   -0.8719 H   0  0
   50.6407  -19.8327    0.9308 H   0  0
   50.6167  -19.8859   -0.8485 H   0  0
   52.6246  -18.3459   -0.9231 H   0  0
   52.6475  -18.2879    0.8561 H   0  0
   54.9173  -19.1882   -0.9678 H   0  0
   54.9760  -19.1124    0.8099 H   0  0
  1  2  1  0
  2  3  1  0
  3  4  1  0
  4  5  1  0
  5  1  1  0
  3  6  1  0
  1  7  1  0
  4  8  1  0
  2  9  1  0
  7 10  1  0
  8 11  1  0
 11 12  1  0
 12 13  1  0
 12 14  2  0
  5 15  1  0
 15 16  1  0
 16 17  1  0
 17 18  1  0
 18 19  1  0
 19 20  1  0
 20 21  1  0
 21 22  1  0
 22 23  2  0
 23 24  1  0
 24 25  2  0
 25 21  1  0
 26 27  1  0
 27 28  1  0
 28 29  1  0
 29 30  1  0
 30 26  1  0
 28 31  1  0
 26 32  1  0
 29 33  1  0
 27 34  1  0
 32 35  1  0
 33 36  1  0
 36 37  1  0
 37 38  1  0
 37 39  2  0
 30 40  1  0
 40 41  1  0
 41 42  1  0
 42 43  1  0
 43 44  1  0
 44 45  1  0
 45 46  1  0
 46 47  1  0
 47 48  2  0
 48 49  1  0
 49 50  2  0
 50 46  1  0
 23 51  1  0
 51 52  1  0
 52 53  1  0
 53 54  1  0
 54 55  1  0
 55 56  1  0
 56 57  1  0
 57 58  1  0
 58 59  1  0
 59 60  1  0
 60 61  1  0
 61 62  1  0
 62 63  1  0
 63 64  1  0
 64 65  1  0
 65 48  1  0
  1 66  1  0
  2 67  1  0
  3 68  1  0
  4 69  1  0
  6 70  1  0
  7 71  1  0
  7 72  1  0
  8 73  1  0
  8 74  1  0
  9 75  1  0
 10 76  1  0
 11 77  1  0
 13 78  1  0
 13 79  1  0
 13 80  1  0
 15 81  1  0
 15 82  1  0
 16 83  1  0
 16 84  1  0
 17 85  1  0
 17 86  1  0
 18 87  1  0
 18 88  1  0
 19 89  1  0
 19 90  1  0
 20 91  1  0
 20 92  1  0
 22 93  1  0
 26 94  1  0
 27 95  1  0
 28 96  1  0
 29 97  1  0
 31 98  1  0
 32 99  1  0
 32100  1  0
 33101  1  0
 33102  1  0
 34103  1  0
 35104  1  0
 36105  1  0
 38106  1  0
 38107  1  0
 38108  1  0
 40109  1  0
 40110  1  0
 41111  1  0
 41112  1  0
 42113  1  0
 42114  1  0
 43115  1  0
 43116  1  0
 44117  1  0
 44118  1  0
 45119  1  0
 45120  1  0
 47121  1  0
 51122  1  0
 51123  1  0
 53124  1  0
 53125  1  0
 54126  1  0
 54127  1  0
 56128  1  0
 56129  1  0
 57130  1  0
 57131  1  0
 59132  1  0
 59133  1  0
 60134  1  0
 60135  1  0
 62136  1  0
 62137  1  0
 63138  1  0
 63139  1  0
 65140  1  0
 65141  1  0
M  END
> <Name>
8a Pingitore et al., 2022

> <Clean Energy>
166.043121337891

> <IC50>
24nM

> <Ki>
127

> <Reference>
Pingitore et al., 2022

> <Forcefield>
MMFF

> <ForcefieldBase>
MMFF

> <ForcefieldFFML>
<?xml version="1.0" encoding="UTF-8"?>
<!DOCTYPE ffml SYSTEM "Ffml.dtd">
<ffml version="1.0">
<forcefield name="8a Pingitore et al., 2022-MMFF" derivedFrom="MMFF" base="MMFF">
<atomTypes>
<atomType
 name="C100"
 element="C"
 mass="12.011"
 annotation=""/>
<atomType
 name="N101"
 element="N"
 mass="14.007"
 annotation=""/>
<atomType
 name="O102"
 element="O"
 mass="16"
 annotation=""/>
<atomType
 name="H103"
 element="H"
 mass="1.008"
 annotation=""/>
</atomTypes>
<parameters>
</parameters>
</forcefield>
</ffml>

$$$$
8b Pingitore et al., 2022
  SciTegic07212313593D

190195  0  0  0  0            999 V2000
   38.3248  -18.8325   -0.3214 C   0  0  2  0  0  0
   38.0416  -20.2406    0.2676 C   0  0  2  0  0  0
   39.1507  -21.0061   -0.3770 C   0  0  1  0  0  0
   40.2891  -20.1084    0.2084 C   0  0  2  0  0  0
   39.8343  -18.7288   -0.2322 N   0  0
   39.2351  -22.3709    0.0458 O   0  0
   37.4909  -17.7589    0.3989 C   0  0
   41.6829  -20.5400   -0.2737 C   0  0
   36.7111  -20.7036    0.0037 O   0  0
   36.0965  -18.0506    0.2294 O   0  0
   41.9732  -21.8670    0.1550 N   0  0
   43.2102  -22.3256    0.0130 C   0  0
   43.5544  -23.7169    0.4514 C   0  0
   44.0805  -21.5977   -0.4784 O   0  0
   40.4970  -17.3617    0.1444 C   0  0
   42.0672  -17.2418   -0.1633 C   0  0
   42.7277  -15.8222    0.1625 C   0  0
   44.3032  -15.8857   -0.1245 C   0  0
   45.1219  -14.5195    0.1004 C   0  0
   46.6856  -14.7929   -0.1509 C   0  0
   47.6252  -13.6171   -0.0313 N   0  0
   49.0526  -13.7061   -0.0744 C   0  0
   49.4538  -12.4404    0.0280 C   0  0
   48.2808  -11.6210    0.1277 N   0  0
   47.2683  -12.3220    0.0918 N   0  0
  110.1812  -15.7669    0.3185 C   0  0  2  0  0  0
  110.8852  -17.0243   -0.2633 C   0  0  2  0  0  0
  110.0600  -18.0889    0.3787 C   0  0  1  0  0  0
  108.7012  -17.5813   -0.2164 C   0  0  2  0  0  0
  108.7057  -16.1277    0.2219 N   0  0
  110.4012  -19.4154   -0.0403 O   0  0
  110.6565  -14.4952   -0.4044 C   0  0
  107.5060  -18.4171    0.2583 C   0  0
  112.2931  -17.0596    0.0084 O   0  0
  112.0738  -14.3528   -0.2274 O   0  0
  107.6586  -19.7714   -0.1660 N   0  0
  106.6452  -20.6130   -0.0087 C   0  0
  106.7771  -22.0419   -0.4435 C   0  0
  105.5891  -20.2132    0.4940 O   0  0
  107.6489  -15.0203   -0.1563 C   0  0
  106.0946  -15.3544    0.1551 C   0  0
  105.0457  -14.1636   -0.1801 C   0  0
  103.5228  -14.6267    0.1235 C   0  0
  102.3356  -13.5291   -0.1242 C   0  0
  100.9039  -14.2307    0.1676 C   0  0
   99.5721  -13.4574    0.0370 N   0  0
   98.3148  -14.0878    0.1085 C   0  0
   97.4094  -13.1119    0.0096 C   0  0
   98.1356  -11.8774   -0.1222 N   0  0
   99.3611  -12.1106   -0.1036 N   0  0
   50.9582  -11.8733    0.0436 C   0  0
   52.1030  -12.8624   -0.0180 O   0  0
   53.4725  -12.1632    0.0129 C   0  0
   54.7714  -13.1698   -0.0222 C   0  0
   56.1466  -12.4720    0.0064 O   0  0
   57.3457  -13.4462   -0.0143 C   0  0
   58.8491  -12.7448    0.0073 C   0  0
   60.0426  -13.7387   -0.0082 O   0  0
   61.4516  -13.0804    0.0049 C   0  0
   62.7465  -14.1330   -0.0056 C   0  0
   64.1629  -13.4736    0.0030 O   0  0
   65.3575  -14.4750   -0.0023 C   0  0
   66.9091  -13.8255    0.0016 C   0  0
   68.0195  -14.9049   -0.0004 O   0  0
   69.5210  -14.5323   -0.0001 C   0  0
   70.4466  -15.5085   -0.0009 C   0  0
   71.9590  -15.2320   -0.0007 C   0  0
   72.4288  -13.9571    0.0002 C   0  0
   71.3784  -12.8716    0.0010 C   0  0
   70.0440  -13.1262    0.0010 C   0  0
   74.0253  -13.6420    0.0003 C   0  0
   74.9839  -14.5750    0.0006 C   0  0
   76.5170  -14.2110    0.0007 C   0  0
   76.9067  -12.9164    0.0001 C   0  0
   75.8011  -11.8991   -0.0003 C   0  0
   74.4861  -12.2208   -0.0001 C   0  0
   78.3788  -12.4012    0.0000 O   0  0
   79.6385  -13.3146    0.0018 C   0  0
   81.0775  -12.4150   -0.0025 C   0  0
   82.4510  -13.1779    0.0033 O   0  0
   83.7319  -12.2544   -0.0068 C   0  0
   85.2265  -13.0295    0.0052 C   0  0
   86.5067  -12.1132   -0.0110 O   0  0
   87.8762  -12.8802    0.0076 C   0  0
   89.2807  -11.9571   -0.0204 C   0  0
   90.6110  -12.7792    0.0059 O   0  0
   91.9546  -11.9754   -0.0332 C   0  0
   93.3086  -12.9444    0.0108 C   0  0
   94.7289  -12.2917   -0.0332 O   0  0
   95.7974  -13.3937    0.0426 C   0  0
   38.0426  -18.8375   -1.3742 H   0  0
   38.2040  -20.2161    1.3451 H   0  0
   39.1053  -20.9301   -1.4633 H   0  0
   40.2582  -20.1613    1.2967 H   0  0
   39.3946  -22.4073    1.0830 H   0  0
   37.7365  -17.7587    1.4608 H   0  0
   37.7125  -16.7799   -0.0260 H   0  0
   41.7132  -20.5008   -1.3626 H   0  0
   42.4299  -19.8599    0.1357 H   0  0
   36.0180  -20.0374    0.4260 H   0  0
   35.8605  -18.0515   -0.7938 H   0  0
   41.2091  -22.4817    0.5831 H   0  0
   44.6091  -23.9097    0.2553 H   0  0
   42.9459  -24.4333   -0.1006 H   0  0
   43.3589  -23.8209    1.5187 H   0  0
   39.9857  -16.5769   -0.4131 H   0  0
   40.3521  -17.2024    1.2129 H   0  0
   42.5838  -17.9963    0.4300 H   0  0
   42.2179  -17.4465   -1.2233 H   0  0
   42.2744  -15.0576   -0.4684 H   0  0
   42.5594  -15.5757    1.2109 H   0  0
   44.7308  -16.6418    0.5340 H   0  0
   44.4399  -16.1881   -1.1628 H   0  0
   44.7672  -13.7627   -0.5992 H   0  0
   44.9728  -14.1692    1.1218 H   0  0
   47.0066  -15.5425    0.5723 H   0  0
   46.7893  -15.1927   -1.1596 H   0  0
   49.6679  -14.6008   -0.1689 H   0  0
  110.4457  -15.6820    1.3725 H   0  0
  110.7291  -17.0536   -1.3417 H   0  0
  110.0745  -18.0005    1.4650 H   0  0
  108.7532  -17.6235   -1.3043 H   0  0
  110.2669  -19.5006   -1.0782 H   0  0
  110.4282  -14.5735   -1.4674 H   0  0
  110.1480  -13.6266    0.0140 H   0  0
  107.4518  -18.3838    1.3465 H   0  0
  106.5886  -18.0076   -0.1644 H   0  0
  112.7528  -16.2152   -0.4137 H   0  0
  112.2934  -14.2783    0.7967 H   0  0
  108.5766  -20.1028   -0.6045 H   0  0
  105.8485  -22.5730   -0.2346 H   0  0
  107.5952  -22.5138    0.1008 H   0  0
  106.9836  -22.0792   -1.5131 H   0  0
  107.9081  -14.1161    0.3945 H   0  0
  107.7374  -14.8325   -1.2263 H   0  0
  105.8134  -16.2261   -0.4358 H   0  0
  106.0075  -15.5902    1.2157 H   0  0
  105.2835  -13.2960    0.4354 H   0  0
  105.1338  -13.8976   -1.2334 H   0  0
  103.3102  -15.4862   -0.5122 H   0  0
  103.4757  -14.9277    1.1701 H   0  0
  102.4727  -12.6834    0.5497 H   0  0
  102.3687  -13.1808   -1.1565 H   0  0
  100.8337  -15.0769   -0.5159 H   0  0
  100.9460  -14.5947    1.1942 H   0  0
   98.1207  -15.1544    0.2215 H   0  0
   51.0606  -11.2088   -0.8144 H   0  0
   51.0768  -11.3006    0.9634 H   0  0
   53.5338  -11.5030   -0.8522 H   0  0
   53.5287  -11.5716    0.9267 H   0  0
   54.7102  -13.8287    0.8439 H   0  0
   54.7135  -13.7625   -0.9351 H   0  0
   57.2661  -14.0924    0.8598 H   0  0
   57.2711  -14.0484   -0.9199 H   0  0
   58.9340  -12.1023   -0.8691 H   0  0
   58.9259  -12.1398    0.9107 H   0  0
   61.5312  -12.4440   -0.8764 H   0  0
   61.5259  -12.4682    0.9037 H   0  0
   62.6683  -14.7671    0.8775 H   0  0
   62.6699  -14.7474   -0.9026 H   0  0
   65.2630  -15.1019    0.8843 H   0  0
   65.2633  -15.0919   -0.8960 H   0  0
   67.0274  -13.2046   -0.8865 H   0  0
   67.0253  -13.2102    0.8938 H   0  0
   70.1082  -16.5447   -0.0018 H   0  0
   72.6606  -16.0662   -0.0013 H   0  0
   71.7075  -11.8324    0.0017 H   0  0
   69.3405  -12.2937    0.0018 H   0  0
   74.6937  -15.6257    0.0009 H   0  0
   77.2645  -15.0043    0.0011 H   0  0
   76.0728  -10.8435   -0.0008 H   0  0
   73.7443  -11.4222   -0.0003 H   0  0
   79.6177  -13.9404    0.8939 H   0  0
   79.6161  -13.9462   -0.8863 H   0  0
   81.0619  -11.7916   -0.8964 H   0  0
   81.0604  -11.7808    0.8838 H   0  0
   83.6872  -11.6385   -0.9050 H   0  0
   83.6848  -11.6156    0.8751 H   0  0
   85.2720  -13.6420    0.9056 H   0  0
   85.2708  -13.6718   -0.8744 H   0  0
   87.9001  -13.4842    0.9146 H   0  0
   87.8969  -13.5331   -0.8650 H   0  0
   89.2725  -11.3561   -0.9296 H   0  0
   89.2715  -11.3007    0.8498 H   0  0
   91.9794  -11.3892   -0.9518 H   0  0
   91.9813  -11.3059    0.8265 H   0  0
   93.2544  -13.5217    0.9337 H   0  0
   93.2434  -13.6177   -0.8439 H   0  0
   95.6095  -13.9229    0.9768 H   0  0
   95.5967  -14.0575   -0.7984 H   0  0
  1  2  1  0
  2  3  1  0
  3  4  1  0
  4  5  1  0
  5  1  1  0
  3  6  1  0
  1  7  1  0
  4  8  1  0
  2  9  1  0
  7 10  1  0
  8 11  1  0
 11 12  1  0
 12 13  1  0
 12 14  2  0
  5 15  1  0
 15 16  1  0
 16 17  1  0
 17 18  1  0
 18 19  1  0
 19 20  1  0
 20 21  1  0
 21 22  1  0
 22 23  2  0
 23 24  1  0
 24 25  2  0
 25 21  1  0
 26 27  1  0
 27 28  1  0
 28 29  1  0
 29 30  1  0
 30 26  1  0
 28 31  1  0
 26 32  1  0
 29 33  1  0
 27 34  1  0
 32 35  1  0
 33 36  1  0
 36 37  1  0
 37 38  1  0
 37 39  2  0
 30 40  1  0
 40 41  1  0
 41 42  1  0
 42 43  1  0
 43 44  1  0
 44 45  1  0
 45 46  1  0
 46 47  1  0
 47 48  2  0
 48 49  1  0
 49 50  2  0
 50 46  1  0
 23 51  1  0
 51 52  1  0
 52 53  1  0
 53 54  1  0
 54 55  1  0
 55 56  1  0
 56 57  1  0
 57 58  1  0
 58 59  1  0
 59 60  1  0
 60 61  1  0
 61 62  1  0
 62 63  1  0
 63 64  1  0
 64 65  1  0
 65 66  2  0
 66 67  1  0
 67 68  2  0
 68 69  1  0
 69 70  2  0
 70 65  1  0
 68 71  1  0
 71 72  2  0
 72 73  1  0
 73 74  2  0
 74 75  1  0
 75 76  2  0
 76 71  1  0
 74 77  1  0
 77 78  1  0
 78 79  1  0
 79 80  1  0
 80 81  1  0
 81 82  1  0
 82 83  1  0
 83 84  1  0
 84 85  1  0
 85 86  1  0
 86 87  1  0
 87 88  1  0
 88 89  1  0
 89 90  1  0
 90 48  1  0
  1 91  1  0
  2 92  1  0
  3 93  1  0
  4 94  1  0
  6 95  1  0
  7 96  1  0
  7 97  1  0
  8 98  1  0
  8 99  1  0
  9100  1  0
 10101  1  0
 11102  1  0
 13103  1  0
 13104  1  0
 13105  1  0
 15106  1  0
 15107  1  0
 16108  1  0
 16109  1  0
 17110  1  0
 17111  1  0
 18112  1  0
 18113  1  0
 19114  1  0
 19115  1  0
 20116  1  0
 20117  1  0
 22118  1  0
 26119  1  0
 27120  1  0
 28121  1  0
 29122  1  0
 31123  1  0
 32124  1  0
 32125  1  0
 33126  1  0
 33127  1  0
 34128  1  0
 35129  1  0
 36130  1  0
 38131  1  0
 38132  1  0
 38133  1  0
 40134  1  0
 40135  1  0
 41136  1  0
 41137  1  0
 42138  1  0
 42139  1  0
 43140  1  0
 43141  1  0
 44142  1  0
 44143  1  0
 45144  1  0
 45145  1  0
 47146  1  0
 51147  1  0
 51148  1  0
 53149  1  0
 53150  1  0
 54151  1  0
 54152  1  0
 56153  1  0
 56154  1  0
 57155  1  0
 57156  1  0
 59157  1  0
 59158  1  0
 60159  1  0
 60160  1  0
 62161  1  0
 62162  1  0
 63163  1  0
 63164  1  0
 66165  1  0
 67166  1  0
 69167  1  0
 70168  1  0
 72169  1  0
 73170  1  0
 75171  1  0
 76172  1  0
 78173  1  0
 78174  1  0
 79175  1  0
 79176  1  0
 81177  1  0
 81178  1  0
 82179  1  0
 82180  1  0
 84181  1  0
 84182  1  0
 85183  1  0
 85184  1  0
 87185  1  0
 87186  1  0
 88187  1  0
 88188  1  0
 90189  1  0
 90190  1  0
M  END
> <Name>
8b Pingitore et al., 2022

> <Clean Energy>
245.44677734375

> <Reference>
Pingitore et al., 2022

> <Forcefield>
MMFF

> <ForcefieldBase>
MMFF

> <ForcefieldFFML>
<?xml version="1.0" encoding="UTF-8"?>
<!DOCTYPE ffml SYSTEM "Ffml.dtd">
<ffml version="1.0">
<forcefield name="8b Pingitore et al., 2022-MMFF" derivedFrom="MMFF" base="MMFF">
<atomTypes>
<atomType
 name="C100"
 element="C"
 mass="12.011"
 annotation=""/>
<atomType
 name="N101"
 element="N"
 mass="14.007"
 annotation=""/>
<atomType
 name="O102"
 element="O"
 mass="16"
 annotation=""/>
<atomType
 name="H103"
 element="H"
 mass="1.008"
 annotation=""/>
</atomTypes>
<parameters>
</parameters>
</forcefield>
</ffml>

$$$$
8c Pingitore et al., 2022
  SciTegic07212313593D

127130  0  0  0  0            999 V2000
   31.4786  -19.4321   -0.3224 C   0  0  2  0  0  0
   31.1949  -20.8379    0.2688 C   0  0  2  0  0  0
   32.3028  -21.6059   -0.3761 C   0  0  1  0  0  0
   33.4416  -20.7092    0.2070 C   0  0  2  0  0  0
   32.9856  -19.3303   -0.2355 N   0  0
   32.3865  -22.9699    0.0485 O   0  0
   30.6484  -18.3544    0.3963 C   0  0
   34.8357  -21.1438   -0.2747 C   0  0
   29.8637  -21.2990    0.0072 O   0  0
   29.2534  -18.6423    0.2295 O   0  0
   35.1233  -22.4707    0.1575 N   0  0
   36.3579  -22.9354    0.0131 C   0  0
   36.6968  -24.3267    0.4558 C   0  0
   37.2301  -22.2136   -0.4839 O   0  0
   33.6426  -17.9669    0.1438 C   0  0
   35.2063  -17.8482   -0.1651 C   0  0
   35.8584  -16.4332    0.1638 C   0  0
   37.4254  -16.4992   -0.1254 C   0  0
   38.2337  -15.1375    0.1016 C   0  0
   39.7858  -15.4126   -0.1527 C   0  0
   40.7103  -14.2440   -0.0317 N   0  0
   42.1291  -14.3178   -0.0733 C   0  0
   42.5196  -13.0776    0.0279 C   0  0
   41.3593  -12.2385    0.1298 N   0  0
   40.3487  -12.9489    0.0929 N   0  0
   65.5577  -23.1650    0.3244 C   0  0  2  0  0  0
   65.7685  -24.5873   -0.2629 C   0  0  2  0  0  0
   64.6202  -25.2928    0.3778 C   0  0  1  0  0  0
   63.5304  -24.3350   -0.2113 C   0  0  2  0  0  0
   64.0525  -22.9826    0.2327 N   0  0
   64.4666  -26.6516   -0.0458 O   0  0
   66.4494  -22.1412   -0.3993 C   0  0
   62.1168  -24.6922    0.2666 C   0  0
   67.0729  -25.1197    0.0039 O   0  0
   67.8261  -22.5085   -0.2278 O   0  0
   61.7642  -26.0041   -0.1627 N   0  0
   60.5093  -26.4077   -0.0142 C   0  0
   60.1016  -27.7815   -0.4533 C   0  0
   59.6752  -25.6431    0.4838 O   0  0
   63.4587  -21.5771   -0.1342 C   0  0
   61.8885  -21.3590    0.1620 C   0  0
   61.3433  -19.8799   -0.1470 C   0  0
   59.7574  -19.7742    0.1183 C   0  0
   59.1283  -18.3024   -0.0917 C   0  0
   57.5285  -18.3050    0.1291 C   0  0
   56.8570  -16.9536    0.0191 N   0  0
   55.4398  -16.7042    0.0672 C   0  0
   55.3586  -15.3752   -0.0287 C   0  0
   56.6855  -14.8637   -0.1285 N   0  0
   57.5012  -15.7817   -0.0994 N   0  0
   44.0120  -12.5177    0.0428 C   0  0
   45.0863  -13.5566   -0.0118 O   0  0
   46.4676  -12.9393    0.0081 C   0  0
   47.6507  -14.0409   -0.0082 C   0  0
   49.0475  -13.4650    0.0027 O   0  0
   50.1091  -14.5460    0.0108 C   0  0
   51.6263  -13.9843   -0.0022 C   0  0
   52.7012  -15.0622    0.0145 O   0  0
   54.0613  -14.4388   -0.0373 C   0  0
   31.1951  -19.4387   -1.3748 H   0  0
   31.3585  -20.8118    1.3461 H   0  0
   32.2566  -21.5312   -1.4626 H   0  0
   33.4108  -20.7603    1.2953 H   0  0
   32.5472  -23.0048    1.0856 H   0  0
   30.8954  -18.3523    1.4579 H   0  0
   30.8722  -17.3771   -0.0313 H   0  0
   34.8661  -21.1072   -1.3637 H   0  0
   35.5838  -20.4640    0.1332 H   0  0
   29.1721  -20.6312    0.4294 H   0  0
   29.0160  -18.6449   -0.7933 H   0  0
   34.3583  -23.0808    0.5904 H   0  0
   37.7499  -24.5253    0.2571 H   0  0
   36.0831  -25.0423   -0.0915 H   0  0
   36.5042  -24.4257    1.5241 H   0  0
   33.1301  -17.1811   -0.4112 H   0  0
   33.4986  -17.8105    1.2128 H   0  0
   35.7246  -18.6034    0.4258 H   0  0
   35.3564  -18.0498   -1.2257 H   0  0
   35.4036  -15.6673   -0.4643 H   0  0
   35.6912  -16.1897    1.2131 H   0  0
   37.8548  -17.2562    0.5308 H   0  0
   37.5611  -16.7991   -1.1645 H   0  0
   37.8771  -14.3792   -0.5955 H   0  0
   38.0860  -14.7900    1.1241 H   0  0
   40.1091  -16.1636    0.5681 H   0  0
   39.8882  -15.8097   -1.1626 H   0  0
   42.7498  -15.2087   -0.1682 H   0  0
   65.8387  -23.1824    1.3774 H   0  0
   65.6104  -24.5549   -1.3409 H   0  0
   64.6665  -25.2194    1.4644 H   0  0
   63.5616  -24.3881   -1.2996 H   0  0
   64.3088  -26.6795   -1.0835 H   0  0
   66.2046  -22.1314   -1.4614 H   0  0
   66.2817  -21.1499    0.0219 H   0  0
   62.0844  -24.6498    1.3553 H   0  0
   61.4064  -23.9761   -0.1466 H   0  0
   67.8009  -24.4913   -0.4177 H   0  0
   68.0614  -22.5186    0.7955 H   0  0
   62.4975  -26.6513   -0.5966 H   0  0
   59.0406  -27.9281   -0.2514 H   0  0
   60.6812  -28.5252    0.0937 H   0  0
   60.2862  -27.8917   -1.5219 H   0  0
   64.0098  -20.8269    0.4328 H   0  0
   63.6196  -21.4181   -1.2005 H   0  0
   61.3268  -22.0625   -0.4525 H   0  0
   61.7096  -21.5728    1.2158 H   0  0
   61.8594  -19.1691    0.4984 H   0  0
   61.5457  -19.6376   -1.1902 H   0  0
   59.2538  -20.4580   -0.5651 H   0  0
   59.5654  -20.0806    1.1466 H   0  0
   59.5833  -17.6175    0.6239 H   0  0
   59.3451  -17.9661   -1.1056 H   0  0
   57.0866  -18.9622   -0.6199 H   0  0
   57.3270  -18.7007    1.1246 H   0  0
   54.6287  -17.4265    0.1596 H   0  0
   44.1340  -11.8622   -0.8194 H   0  0
   44.1464  -11.9427    0.9590 H   0  0
   46.5754  -12.3006   -0.8686 H   0  0
   46.5661  -12.3371    0.9113 H   0  0
   47.5374  -14.6742    0.8717 H   0  0
   47.5396  -14.6455   -0.9083 H   0  0
   49.9756  -15.1496    0.9085 H   0  0
   49.9680  -15.1702   -0.8716 H   0  0
   51.7593  -13.3855   -0.9033 H   0  0
   51.7630  -13.3543    0.8767 H   0  0
   54.1039  -13.8468   -0.9515 H   0  0
   54.1408  -13.7795    0.8271 H   0  0
  1  2  1  0
  2  3  1  0
  3  4  1  0
  4  5  1  0
  5  1  1  0
  3  6  1  0
  1  7  1  0
  4  8  1  0
  2  9  1  0
  7 10  1  0
  8 11  1  0
 11 12  1  0
 12 13  1  0
 12 14  2  0
  5 15  1  0
 15 16  1  0
 16 17  1  0
 17 18  1  0
 18 19  1  0
 19 20  1  0
 20 21  1  0
 21 22  1  0
 22 23  2  0
 23 24  1  0
 24 25  2  0
 25 21  1  0
 26 27  1  0
 27 28  1  0
 28 29  1  0
 29 30  1  0
 30 26  1  0
 28 31  1  0
 26 32  1  0
 29 33  1  0
 27 34  1  0
 32 35  1  0
 33 36  1  0
 36 37  1  0
 37 38  1  0
 37 39  2  0
 30 40  1  0
 40 41  1  0
 41 42  1  0
 42 43  1  0
 43 44  1  0
 44 45  1  0
 45 46  1  0
 46 47  1  0
 47 48  2  0
 48 49  1  0
 49 50  2  0
 50 46  1  0
 23 51  1  0
 51 52  1  0
 52 53  1  0
 53 54  1  0
 54 55  1  0
 55 56  1  0
 56 57  1  0
 57 58  1  0
 58 59  1  0
 59 48  1  0
  1 60  1  0
  2 61  1  0
  3 62  1  0
  4 63  1  0
  6 64  1  0
  7 65  1  0
  7 66  1  0
  8 67  1  0
  8 68  1  0
  9 69  1  0
 10 70  1  0
 11 71  1  0
 13 72  1  0
 13 73  1  0
 13 74  1  0
 15 75  1  0
 15 76  1  0
 16 77  1  0
 16 78  1  0
 17 79  1  0
 17 80  1  0
 18 81  1  0
 18 82  1  0
 19 83  1  0
 19 84  1  0
 20 85  1  0
 20 86  1  0
 22 87  1  0
 26 88  1  0
 27 89  1  0
 28 90  1  0
 29 91  1  0
 31 92  1  0
 32 93  1  0
 32 94  1  0
 33 95  1  0
 33 96  1  0
 34 97  1  0
 35 98  1  0
 36 99  1  0
 38100  1  0
 38101  1  0
 38102  1  0
 40103  1  0
 40104  1  0
 41105  1  0
 41106  1  0
 42107  1  0
 42108  1  0
 43109  1  0
 43110  1  0
 44111  1  0
 44112  1  0
 45113  1  0
 45114  1  0
 47115  1  0
 51116  1  0
 51117  1  0
 53118  1  0
 53119  1  0
 54120  1  0
 54121  1  0
 56122  1  0
 56123  1  0
 57124  1  0
 57125  1  0
 59126  1  0
 59127  1  0
M  END
> <Name>
8c Pingitore et al., 2022

> <Clean Energy>
162.176895141602

> <Reference>
Pingitore et al., 2022

> <Forcefield>
MMFF

> <ForcefieldBase>
MMFF

> <ForcefieldFFML>
<?xml version="1.0" encoding="UTF-8"?>
<!DOCTYPE ffml SYSTEM "Ffml.dtd">
<ffml version="1.0">
<forcefield name="8c Pingitore et al., 2022-MMFF" derivedFrom="MMFF" base="MMFF">
<atomTypes>
<atomType
 name="C100"
 element="C"
 mass="12.011"
 annotation=""/>
<atomType
 name="N101"
 element="N"
 mass="14.007"
 annotation=""/>
<atomType
 name="O102"
 element="O"
 mass="16"
 annotation=""/>
<atomType
 name="H103"
 element="H"
 mass="1.008"
 annotation=""/>
</atomTypes>
<parameters>
</parameters>
</forcefield>
</ffml>

$$$$
8d Pingitore et al., 2022
  SciTegic07212313593D

155158  0  0  0  0            999 V2000
   29.8616  -20.6410   -0.3231 C   0  0  2  0  0  0
   29.5590  -22.0469    0.2651 C   0  0  2  0  0  0
   30.6584  -22.8260   -0.3763 C   0  0  1  0  0  0
   31.8089  -21.9413    0.2113 C   0  0  2  0  0  0
   31.3766  -20.5567   -0.2321 N   0  0
   30.7235  -24.1918    0.0478 O   0  0
   29.0381  -19.5615    0.4002 C   0  0
   33.1954  -22.3913   -0.2679 C   0  0
   28.2227  -22.4938   -0.0006 O   0  0
   27.6403  -19.8397    0.2294 O   0  0
   33.4620  -23.7229    0.1624 N   0  0
   34.6879  -24.2072    0.0141 C   0  0
   35.0058  -25.6040    0.4547 C   0  0
   35.5698  -23.4988   -0.4848 O   0  0
   32.0652  -19.1927    0.1355 C   0  0
   33.6478  -19.0851   -0.1647 C   0  0
   34.3136  -17.6542    0.1492 C   0  0
   35.9044  -17.6880   -0.1235 C   0  0
   36.6870  -16.2870    0.0925 C   0  0
   38.2796  -16.4705   -0.1392 C   0  0
   39.1352  -15.2206   -0.0245 N   0  0
   40.5811  -15.1655   -0.0717 C   0  0
   40.8569  -13.8808    0.0290 C   0  0
   39.6105  -13.1692    0.1334 N   0  0
   38.6679  -13.9657    0.1000 N   0  0
   80.8926  -21.3361    0.3235 C   0  0  2  0  0  0
   81.0971  -22.7590   -0.2654 C   0  0  2  0  0  0
   79.9468  -23.4608    0.3765 C   0  0  1  0  0  0
   78.8602  -22.4991   -0.2101 C   0  0  2  0  0  0
   79.3880  -21.1476    0.2331 N   0  0
   79.7871  -24.8186   -0.0478 O   0  0
   81.7880  -20.3148   -0.3990 C   0  0
   77.4457  -22.8529    0.2698 C   0  0
   82.3995  -23.2969   -0.0005 O   0  0
   83.1634  -20.6881   -0.2287 O   0  0
   77.0869  -24.1624   -0.1611 N   0  0
   75.8299  -24.5599   -0.0135 C   0  0
   75.4154  -25.9309   -0.4547 C   0  0
   74.9995  -23.7917    0.4853 O   0  0
   78.7966  -19.7409   -0.1364 C   0  0
   77.2275  -19.5282    0.1658 C   0  0
   76.6554  -18.0607   -0.1516 C   0  0
   75.0690  -18.0021    0.1249 C   0  0
   74.3652  -16.5634   -0.0941 C   0  0
   72.7701  -16.6710    0.1427 C   0  0
   71.9695  -15.3910    0.0263 N   0  0
   70.5296  -15.2747    0.0720 C   0  0
   70.3019  -13.9967   -0.0287 C   0  0
   71.5716  -13.3178   -0.1342 N   0  0
   72.4843  -14.1532   -0.0993 N   0  0
   42.2967  -13.1197    0.0433 C   0  0
   43.5894  -13.9198   -0.0201 O   0  0
   44.8244  -12.9858    0.0106 C   0  0
   46.2979  -13.7255   -0.0240 C   0  0
   47.5170  -12.7706    0.0041 O   0  0
   48.8862  -13.4909   -0.0147 C   0  0
   50.2314  -12.5159    0.0050 C   0  0
   51.5831  -13.2787   -0.0074 O   0  0
   52.8607  -12.3955    0.0019 C   0  0
   54.2942  -13.2420   -0.0030 C   0  0
   55.5989  -12.3973   -0.0001 O   0  0
   56.9044  -13.2402    0.0030 C   0  0
   58.3365  -12.3922   -0.0023 C   0  0
   59.6134  -13.2747    0.0073 O   0  0
   60.9641  -12.5125   -0.0054 C   0  0
   62.3056  -13.4898    0.0145 C   0  0
   63.6755  -12.7743   -0.0046 O   0  0
   64.8861  -13.7363    0.0237 C   0  0
   66.3638  -13.0096   -0.0115 C   0  0
   67.5825  -13.9607    0.0195 O   0  0
   68.8884  -13.1839   -0.0445 C   0  0
   29.5797  -20.6407   -1.3760 H   0  0
   29.7198  -22.0246    1.3429 H   0  0
   30.6159  -22.7501   -1.4628 H   0  0
   31.7755  -21.9923    1.2996 H   0  0
   30.8800  -24.2296    1.0854 H   0  0
   29.2834  -19.5668    1.4622 H   0  0
   29.2690  -18.5834   -0.0217 H   0  0
   33.2290  -22.3524   -1.3567 H   0  0
   33.9518  -21.7229    0.1435 H   0  0
   27.5372  -21.8193    0.4211 H   0  0
   27.4046  -19.8354   -0.7939 H   0  0
   32.6882  -24.3208    0.5969 H   0  0
   36.0550  -25.8193    0.2527 H   0  0
   34.3791  -26.3092   -0.0913 H   0  0
   34.8148  -25.7008    1.5235 H   0  0
   31.5660  -18.4060   -0.4302 H   0  0
   31.9176  -19.0234    1.2022 H   0  0
   34.1569  -19.8334    0.4427 H   0  0
   33.8054  -19.3050   -1.2206 H   0  0
   33.8575  -16.8999   -0.4920 H   0  0
   34.1360  -17.3993    1.1940 H   0  0
   36.3434  -18.4235    0.5506 H   0  0
   36.0599  -18.0020   -1.1557 H   0  0
   36.3059  -15.5527   -0.6173 H   0  0
   36.5130  -15.9346    1.1092 H   0  0
   38.6402  -17.1861    0.5997 H   0  0
   38.4227  -16.8776   -1.1401 H   0  0
   41.2807  -15.9958   -0.1684 H   0  0
   81.1741  -21.3561    1.3763 H   0  0
   80.9377  -22.7252   -1.3432 H   0  0
   79.9949  -23.3883    1.4631 H   0  0
   78.8895  -22.5522   -1.2984 H   0  0
   79.6276  -24.8452   -1.0853 H   0  0
   81.5428  -20.3022   -1.4609 H   0  0
   81.6245  -19.3236    0.0240 H   0  0
   77.4156  -22.8126    1.3586 H   0  0
   76.7371  -22.1334   -0.1407 H   0  0
   83.1296  -22.6712   -0.4222 H   0  0
   83.3990  -20.7009    0.7945 H   0  0
   77.8172  -24.8128   -0.5954 H   0  0
   74.3536  -26.0724   -0.2532 H   0  0
   75.9910  -26.6783    0.0913 H   0  0
   75.5996  -26.0404   -1.5234 H   0  0
   79.3488  -18.9892    0.4276 H   0  0
   78.9541  -19.5836   -1.2035 H   0  0
   76.6693  -20.2440   -0.4377 H   0  0
   77.0583  -19.7333    1.2228 H   0  0
   77.1579  -17.3341    0.4869 H   0  0
   76.8464  -17.8197   -1.1973 H   0  0
   74.5872  -18.7145   -0.5448 H   0  0
   74.8993  -18.3025    1.1588 H   0  0
   74.7850  -15.8477    0.6127 H   0  0
   74.5543  -16.2230   -1.1122 H   0  0
   72.3755  -17.3732   -0.5916 H   0  0
   72.6128  -17.0669    1.1460 H   0  0
   69.7983  -16.0770    0.1690 H   0  0
   42.3032  -12.4461   -0.8136 H   0  0
   42.3338  -12.5376    0.9641 H   0  0
   44.7635  -12.3256   -0.8545 H   0  0
   44.7710  -12.3941    0.9245 H   0  0
   46.3652  -14.3833    0.8425 H   0  0
   46.3557  -14.3188   -0.9366 H   0  0
   48.9327  -14.1384    0.8609 H   0  0
   48.9295  -14.0981   -0.9189 H   0  0
   50.1969  -11.8715   -0.8734 H   0  0
   50.1947  -11.9043    0.9066 H   0  0
   52.8395  -11.7594   -0.8830 H   0  0
   52.8368  -11.7743    0.8973 H   0  0
   54.3078  -13.8750    0.8843 H   0  0
   54.3065  -13.8669   -0.8960 H   0  0
   56.8929  -13.8648    0.8962 H   0  0
   56.8915  -13.8736   -0.8840 H   0  0
   58.3598  -11.7713   -0.8978 H   0  0
   58.3572  -11.7558    0.8824 H   0  0
   61.0016  -11.9012   -0.9072 H   0  0
   60.9995  -11.8678    0.8728 H   0  0
   62.2608  -14.0965    0.9190 H   0  0
   62.2573  -14.1375   -0.8608 H   0  0
   64.8240  -14.3287    0.9365 H   0  0
   64.8137  -14.3939   -0.8426 H   0  0
   66.4241  -12.4188   -0.9255 H   0  0
   66.4325  -12.3499    0.8534 H   0  0
   68.8670  -12.6014   -0.9656 H   0  0
   68.8997  -12.5099    0.8121 H   0  0
  1  2  1  0
  2  3  1  0
  3  4  1  0
  4  5  1  0
  5  1  1  0
  3  6  1  0
  1  7  1  0
  4  8  1  0
  2  9  1  0
  7 10  1  0
  8 11  1  0
 11 12  1  0
 12 13  1  0
 12 14  2  0
  5 15  1  0
 15 16  1  0
 16 17  1  0
 17 18  1  0
 18 19  1  0
 19 20  1  0
 20 21  1  0
 21 22  1  0
 22 23  2  0
 23 24  1  0
 24 25  2  0
 25 21  1  0
 26 27  1  0
 27 28  1  0
 28 29  1  0
 29 30  1  0
 30 26  1  0
 28 31  1  0
 26 32  1  0
 29 33  1  0
 27 34  1  0
 32 35  1  0
 33 36  1  0
 36 37  1  0
 37 38  1  0
 37 39  2  0
 30 40  1  0
 40 41  1  0
 41 42  1  0
 42 43  1  0
 43 44  1  0
 44 45  1  0
 45 46  1  0
 46 47  1  0
 47 48  2  0
 48 49  1  0
 49 50  2  0
 50 46  1  0
 23 51  1  0
 51 52  1  0
 52 53  1  0
 53 54  1  0
 54 55  1  0
 55 56  1  0
 56 57  1  0
 57 58  1  0
 58 59  1  0
 59 60  1  0
 60 61  1  0
 61 62  1  0
 62 63  1  0
 63 64  1  0
 64 65  1  0
 65 66  1  0
 66 67  1  0
 67 68  1  0
 68 69  1  0
 69 70  1  0
 70 71  1  0
 71 48  1  0
  1 72  1  0
  2 73  1  0
  3 74  1  0
  4 75  1  0
  6 76  1  0
  7 77  1  0
  7 78  1  0
  8 79  1  0
  8 80  1  0
  9 81  1  0
 10 82  1  0
 11 83  1  0
 13 84  1  0
 13 85  1  0
 13 86  1  0
 15 87  1  0
 15 88  1  0
 16 89  1  0
 16 90  1  0
 17 91  1  0
 17 92  1  0
 18 93  1  0
 18 94  1  0
 19 95  1  0
 19 96  1  0
 20 97  1  0
 20 98  1  0
 22 99  1  0
 26100  1  0
 27101  1  0
 28102  1  0
 29103  1  0
 31104  1  0
 32105  1  0
 32106  1  0
 33107  1  0
 33108  1  0
 34109  1  0
 35110  1  0
 36111  1  0
 38112  1  0
 38113  1  0
 38114  1  0
 40115  1  0
 40116  1  0
 41117  1  0
 41118  1  0
 42119  1  0
 42120  1  0
 43121  1  0
 43122  1  0
 44123  1  0
 44124  1  0
 45125  1  0
 45126  1  0
 47127  1  0
 51128  1  0
 51129  1  0
 53130  1  0
 53131  1  0
 54132  1  0
 54133  1  0
 56134  1  0
 56135  1  0
 57136  1  0
 57137  1  0
 59138  1  0
 59139  1  0
 60140  1  0
 60141  1  0
 62142  1  0
 62143  1  0
 63144  1  0
 63145  1  0
 65146  1  0
 65147  1  0
 66148  1  0
 66149  1  0
 68150  1  0
 68151  1  0
 69152  1  0
 69153  1  0
 71154  1  0
 71155  1  0
M  END
> <Name>
8d Pingitore et al., 2022

> <Clean Energy>
199.82405090332

> <Reference>
Pingitore et al., 2022

> <Forcefield>
MMFF

> <ForcefieldBase>
MMFF

> <ForcefieldFFML>
<?xml version="1.0" encoding="UTF-8"?>
<!DOCTYPE ffml SYSTEM "Ffml.dtd">
<ffml version="1.0">
<forcefield name="8d Pingitore et al., 2022-MMFF" derivedFrom="MMFF" base="MMFF">
<atomTypes>
<atomType
 name="C100"
 element="C"
 mass="12.011"
 annotation=""/>
<atomType
 name="N101"
 element="N"
 mass="14.007"
 annotation=""/>
<atomType
 name="O102"
 element="O"
 mass="16"
 annotation=""/>
<atomType
 name="H103"
 element="H"
 mass="1.008"
 annotation=""/>
</atomTypes>
<parameters>
</parameters>
</forcefield>
</ffml>

$$$$
8e Pingitore et al., 2022
  SciTegic07212313593D

118121  0  0  0  0            999 V2000
   20.2341  -20.8102   -0.3244 C   0  0  2  0  0  0
   19.9419  -22.2142    0.2663 C   0  0  2  0  0  0
   21.0461  -22.9881   -0.3771 C   0  0  1  0  0  0
   22.1895  -22.0963    0.2078 C   0  0  2  0  0  0
   21.7419  -20.7170   -0.2368 N   0  0
   21.1214  -24.3525    0.0480 O   0  0
   19.4100  -19.7285    0.3956 C   0  0
   23.5819  -22.5362   -0.2713 C   0  0
   18.6080  -22.6676    0.0037 O   0  0
   18.0133  -20.0079    0.2287 O   0  0
   23.8603  -23.8655    0.1609 N   0  0
   25.0905  -24.3406    0.0141 C   0  0
   25.4186  -25.7346    0.4566 C   0  0
   25.9676  -23.6263   -0.4849 O   0  0
   22.4030  -19.3551    0.1386 C   0  0
   23.9701  -19.2286   -0.1611 C   0  0
   24.5875  -17.7940    0.1568 C   0  0
   26.1611  -17.7940   -0.1161 C   0  0
   26.8760  -16.3782    0.0994 C   0  0
   28.4513  -16.5154   -0.1330 C   0  0
   29.2322  -15.2415   -0.0227 N   0  0
   30.6466  -15.1444   -0.0746 C   0  0
   30.8720  -13.8367    0.0148 C   0  0
   29.6164  -13.1767    0.1169 N   0  0
   28.7082  -14.0054    0.0938 N   0  0
   49.9089  -17.1876    0.3174 C   0  0  2  0  0  0
   50.4955  -18.4956   -0.2699 C   0  0  2  0  0  0
   49.5825  -19.4877    0.3777 C   0  0  1  0  0  0
   48.2757  -18.8647   -0.2098 C   0  0  2  0  0  0
   48.4194  -17.4163    0.2283 N   0  0
   49.8029  -20.8377   -0.0435 O   0  0
   50.4796  -15.9507   -0.3971 C   0  0
   47.0086  -19.5967    0.2658 C   0  0
   51.8949  -18.6509   -0.0055 O   0  0
   51.9023  -15.9204   -0.2279 O   0  0
   47.0415  -20.9584   -0.1654 N   0  0
   45.9627  -21.7153   -0.0060 C   0  0
   45.9754  -23.1480   -0.4496 C   0  0
   44.9453  -21.2345    0.5056 O   0  0
   47.4943  -16.2303   -0.1722 C   0  0
   45.9486  -16.4219    0.1606 C   0  0
   45.0242  -15.1760   -0.2074 C   0  0
   43.5200  -15.5453    0.1406 C   0  0
   42.4065  -14.4278   -0.1397 C   0  0
   41.0239  -15.1128    0.2141 C   0  0
   39.7229  -14.3792    0.0524 N   0  0
   38.5235  -15.0488    0.0970 C   0  0
   37.5926  -14.1047   -0.0079 C   0  0
   38.2578  -12.8467   -0.1165 N   0  0
   39.4842  -13.0360   -0.0805 N   0  0
   32.2704  -13.1019    0.0109 C   0  0
   33.5190  -14.0768   -0.0224 C   0  0
   34.9531  -13.3326   -0.0303 C   0  0
   36.0616  -14.4633   -0.0034 C   0  0
   19.9507  -20.8144   -1.3769 H   0  0
   20.1046  -22.1890    1.3438 H   0  0
   21.0016  -22.9134   -1.4636 H   0  0
   22.1567  -22.1462    1.2961 H   0  0
   21.2806  -24.3881    1.0853 H   0  0
   19.6570  -19.7290    1.4572 H   0  0
   19.6394  -18.7520   -0.0309 H   0  0
   23.6152  -22.4985   -1.3601 H   0  0
   24.3325  -21.8608    0.1392 H   0  0
   17.9201  -21.9958    0.4256 H   0  0
   17.7757  -20.0081   -0.7941 H   0  0
   23.0913  -24.4693    0.5957 H   0  0
   26.4697  -25.9421    0.2558 H   0  0
   24.7979  -26.4452   -0.0892 H   0  0
   25.2274  -25.8316    1.5253 H   0  0
   21.8924  -18.5714   -0.4211 H   0  0
   22.2540  -19.1955    1.2065 H   0  0
   24.4938  -19.9671    0.4458 H   0  0
   24.1336  -19.4435   -1.2171 H   0  0
   24.1122  -17.0488   -0.4811 H   0  0
   24.4042  -17.5477    1.2027 H   0  0
   26.6229  -18.5141    0.5594 H   0  0
   26.3269  -18.1047   -1.1477 H   0  0
   26.4688  -15.6575   -0.6098 H   0  0
   26.6908  -16.0324    1.1164 H   0  0
   28.8406  -17.2132    0.6084 H   0  0
   28.6093  -16.9207   -1.1324 H   0  0
   31.3753  -15.9500   -0.1659 H   0  0
   50.1841  -17.1317    1.3706 H   0  0
   50.3315  -18.5089   -1.3474 H   0  0
   49.6095  -19.4017    1.4639 H   0  0
   48.3217  -18.9102   -1.2979 H   0  0
   49.6552  -20.9099   -1.0806 H   0  0
   50.2404  -16.0013   -1.4593 H   0  0
   50.0428  -15.0488    0.0317 H   0  0
   46.9596  -19.5637    1.3542 H   0  0
   46.1298  -19.1065   -0.1530 H   0  0
   52.4227  -17.8476   -0.4282 H   0  0
   52.1327  -15.8723    0.7954 H   0  0
   47.9256  -21.3635   -0.6117 H   0  0
   45.0078  -23.6030   -0.2381 H   0  0
   46.7554  -23.6881    0.0871 H   0  0
   46.1723  -23.1955   -1.5206 H   0  0
   47.8428  -15.3409    0.3529 H   0  0
   47.5897  -16.0787   -1.2474 H   0  0
   45.5873  -17.2874   -0.3949 H   0  0
   45.8532  -16.6103    1.2300 H   0  0
   45.3326  -14.3057    0.3719 H   0  0
   45.1118  -14.9547   -1.2711 H   0  0
   43.2550  -16.4257   -0.4448 H   0  0
   43.4797  -15.7887    1.2023 H   0  0
   42.5733  -13.5564    0.4936 H   0  0
   42.4252  -14.1255   -1.1868 H   0  0
   40.9539  -16.0047   -0.4086 H   0  0
   41.0844  -15.4049    1.2625 H   0  0
   38.3685  -16.1231    0.1968 H   0  0
   32.3157  -12.4591   -0.8682 H   0  0
   32.3378  -12.4918    0.9116 H   0  0
   33.4735  -14.7176    0.8581 H   0  0
   33.4486  -14.6886   -0.9218 H   0  0
   35.0564  -12.7287   -0.9319 H   0  0
   35.0483  -12.6942    0.8480 H   0  0
   35.8842  -15.0480    0.8993 H   0  0
   35.8881  -15.0866   -0.8806 H   0  0
  1  2  1  0
  2  3  1  0
  3  4  1  0
  4  5  1  0
  5  1  1  0
  3  6  1  0
  1  7  1  0
  4  8  1  0
  2  9  1  0
  7 10  1  0
  8 11  1  0
 11 12  1  0
 12 13  1  0
 12 14  2  0
  5 15  1  0
 15 16  1  0
 16 17  1  0
 17 18  1  0
 18 19  1  0
 19 20  1  0
 20 21  1  0
 21 22  1  0
 22 23  2  0
 23 24  1  0
 24 25  2  0
 25 21  1  0
 26 27  1  0
 27 28  1  0
 28 29  1  0
 29 30  1  0
 30 26  1  0
 28 31  1  0
 26 32  1  0
 29 33  1  0
 27 34  1  0
 32 35  1  0
 33 36  1  0
 36 37  1  0
 37 38  1  0
 37 39  2  0
 30 40  1  0
 40 41  1  0
 41 42  1  0
 42 43  1  0
 43 44  1  0
 44 45  1  0
 45 46  1  0
 46 47  1  0
 47 48  2  0
 48 49  1  0
 49 50  2  0
 50 46  1  0
 23 51  1  0
 51 52  1  0
 52 53  1  0
 53 54  1  0
 54 48  1  0
  1 55  1  0
  2 56  1  0
  3 57  1  0
  4 58  1  0
  6 59  1  0
  7 60  1  0
  7 61  1  0
  8 62  1  0
  8 63  1  0
  9 64  1  0
 10 65  1  0
 11 66  1  0
 13 67  1  0
 13 68  1  0
 13 69  1  0
 15 70  1  0
 15 71  1  0
 16 72  1  0
 16 73  1  0
 17 74  1  0
 17 75  1  0
 18 76  1  0
 18 77  1  0
 19 78  1  0
 19 79  1  0
 20 80  1  0
 20 81  1  0
 22 82  1  0
 26 83  1  0
 27 84  1  0
 28 85  1  0
 29 86  1  0
 31 87  1  0
 32 88  1  0
 32 89  1  0
 33 90  1  0
 33 91  1  0
 34 92  1  0
 35 93  1  0
 36 94  1  0
 38 95  1  0
 38 96  1  0
 38 97  1  0
 40 98  1  0
 40 99  1  0
 41100  1  0
 41101  1  0
 42102  1  0
 42103  1  0
 43104  1  0
 43105  1  0
 44106  1  0
 44107  1  0
 45108  1  0
 45109  1  0
 47110  1  0
 51111  1  0
 51112  1  0
 52113  1  0
 52114  1  0
 53115  1  0
 53116  1  0
 54117  1  0
 54118  1  0
M  END
> <Name>
8e Pingitore et al., 2022

> <Clean Energy>
158.205963134766

> <Reference>
Pingitore et al., 2022

> <Forcefield>
MMFF

> <ForcefieldBase>
MMFF

> <ForcefieldFFML>
<?xml version="1.0" encoding="UTF-8"?>
<!DOCTYPE ffml SYSTEM "Ffml.dtd">
<ffml version="1.0">
<forcefield name="8e Pingitore et al., 2022-MMFF" derivedFrom="MMFF" base="MMFF">
<atomTypes>
<atomType
 name="C100"
 element="C"
 mass="12.011"
 annotation=""/>
<atomType
 name="N101"
 element="N"
 mass="14.007"
 annotation=""/>
<atomType
 name="O102"
 element="O"
 mass="16"
 annotation=""/>
<atomType
 name="H103"
 element="H"
 mass="1.008"
 annotation=""/>
</atomTypes>
<parameters>
</parameters>
</forcefield>
</ffml>

$$$$
9a Pingitore et al., 2022
  SciTegic07212313593D

124125  0  0  0  0            999 V2000
   26.2665  -26.6641   -0.3233 C   0  0  2  0  0  0
   25.1641  -27.5832    0.2656 C   0  0  2  0  0  0
   25.5472  -28.8757   -0.3784 C   0  0  1  0  0  0
   27.0015  -28.8860    0.2045 C   0  0  2  0  0  0
   27.5103  -27.5303   -0.2370 N   0  0
   24.7583  -29.9907    0.0451 O   0  0
   26.2898  -25.3053    0.3978 C   0  0
   27.8180  -30.0928   -0.2717 C   0  0
   23.8360  -27.1101    0.0046 O   0  0
   25.0196  -24.6592    0.2316 O   0  0
   27.2125  -31.3077    0.1574 N   0  0
   27.8642  -32.4439    0.0183 C   0  0
   27.2638  -33.7394    0.4558 C   0  0
   29.0121  -32.4322   -0.4863 O   0  0
   28.8823  -26.8764    0.1447 C   0  0
   30.2113  -27.7375   -0.1613 C   0  0
   31.5808  -26.9702    0.1818 C   0  0
   32.8791  -27.8830   -0.1055 C   0  0
   34.2850  -27.1310    0.1601 C   0  0
   35.5619  -28.0892   -0.1000 C   0  0
   36.9109  -27.4120    0.0754 N   0  0
   38.1824  -28.1739   -0.0096 C   0  0
   39.5187  -27.5219    0.0791 N   0  0
   38.1117  -29.7251   -0.2029 S   0  0
   40.8200  -28.3164   -0.0238 C   0  0
   42.1779  -27.4197    0.0656 C   0  0
   43.5558  -28.2903   -0.0547 C   0  0
   44.9191  -27.3977    0.0368 C   0  0
   46.3046  -28.2555   -0.0955 C   0  0
   47.6493  -27.3386    0.0086 C   0  0
   48.9718  -28.0963   -0.1261 N   0  0
   50.2889  -27.4163    0.0433 C   0  0
   51.5901  -28.1262   -0.0843 N   0  0
   50.3051  -25.8874    0.3750 S   0  0
   52.9084  -27.4485    0.2717 C   0  0
   54.2419  -28.2192   -0.2344 C   0  0
   55.6093  -27.5176    0.2870 C   0  0
   56.9603  -28.1868   -0.2972 C   0  0
   58.3070  -27.5258    0.3022 C   0  0
   59.6554  -28.0676   -0.4157 C   0  0
   61.0077  -27.4922    0.1135 N   0  0
   62.3582  -28.0878   -0.2547 C   0  0  1  0  0  0
   63.3393  -27.0849    0.4313 C   0  0  2  0  0  0
   62.7549  -25.8863   -0.2294 C   0  0  1  0  0  0
   61.2755  -25.9949    0.2369 C   0  0  1  0  0  0
   60.4234  -25.0042   -0.5844 C   0  0
   64.7129  -27.3131    0.0899 O   0  0
   63.3538  -24.6279    0.0942 O   0  0
   62.6044  -29.5458    0.1825 C   0  0
   60.8840  -23.6718   -0.3474 O   0  0
   63.9727  -29.8768   -0.1854 N   0  0
   64.4951  -31.0907    0.0051 C   0  0
   65.6683  -31.3094   -0.3228 O   0  0
   63.6751  -32.1934    0.6110 C   0  0
   26.0420  -26.4902   -1.3756 H   0  0
   25.3074  -27.6659    1.3430 H   0  0
   25.5573  -28.7884   -1.4648 H   0  0
   26.9455  -28.9048    1.2929 H   0  0
   24.8605  -30.1186    1.0822 H   0  0
   26.4837  -25.4597    1.4593 H   0  0
   27.0747  -24.6804   -0.0283 H   0  0
   27.8696  -30.0832   -1.3604 H   0  0
   28.8249  -30.0292    0.1409 H   0  0
   23.7138  -26.1571    0.4282 H   0  0
   24.8328  -24.5113   -0.7910 H   0  0
   26.2339  -31.2979    0.5901 H   0  0
   27.9624  -34.5511    0.2531 H   0  0
   26.3368  -33.9137   -0.0905 H   0  0
   27.0533  -33.7003    1.5246 H   0  0
   28.9641  -25.9384   -0.4045 H   0  0
   28.8626  -26.6708    1.2150 H   0  0
   30.1721  -28.6507    0.4325 H   0  0
   30.2177  -27.9926   -1.2211 H   0  0
   31.6419  -26.0706   -0.4306 H   0  0
   31.5731  -26.6930    1.2359 H   0  0
   32.8317  -28.7590    0.5415 H   0  0
   32.8515  -28.1990   -1.1483 H   0  0
   34.3523  -26.2713   -0.5067 H   0  0
   34.3088  -26.7911    1.1955 H   0  0
   35.5078  -28.9237    0.5991 H   0  0
   35.5014  -28.4654   -1.1212 H   0  0
   36.9454  -26.3595    0.2650 H   0  0
   39.5691  -26.4623    0.2196 H   0  0
   40.8391  -29.0421    0.7892 H   0  0
   40.8224  -28.8405   -0.9795 H   0  0
   42.1613  -26.6903   -0.7441 H   0  0
   42.1833  -26.8998    1.0236 H   0  0
   43.5704  -29.0210    0.7540 H   0  0
   43.5501  -28.8089   -1.0135 H   0  0
   44.8975  -26.6610   -0.7663 H   0  0
   44.9266  -26.8864    0.9994 H   0  0
   46.3294  -28.9962    0.7037 H   0  0
   46.3061  -28.7617   -1.0609 H   0  0
   47.6083  -26.5905   -0.7831 H   0  0
   47.6435  -26.8422    0.9789 H   0  0
   48.9515  -29.1429   -0.3478 H   0  0
   51.6009  -29.1372   -0.4346 H   0  0
   52.9059  -26.4530   -0.1723 H   0  0
   52.9605  -27.3627    1.3570 H   0  0
   54.2134  -29.2441    0.1357 H   0  0
   54.2477  -28.2260   -1.3244 H   0  0
   55.5907  -26.4692   -0.0106 H   0  0
   55.6360  -27.5868    1.3744 H   0  0
   56.9559  -29.2485   -0.0504 H   0  0
   56.9670  -28.0650   -1.3804 H   0  0
   58.2526  -26.4455    0.1676 H   0  0
   58.3633  -27.7575    1.3658 H   0  0
   59.6848  -29.1500   -0.2903 H   0  0
   59.5855  -27.8260   -1.4762 H   0  0
   62.4876  -28.0200   -1.3348 H   0  0
   63.1941  -27.0577    1.5112 H   0  0
   62.7940  -26.0265   -1.3096 H   0  0
   61.2194  -25.7155    1.2890 H   0  0
   60.5159  -25.2376   -1.6450 H   0  0
   59.3790  -25.0868   -0.2834 H   0  0
   64.9917  -28.2810    0.3867 H   0  0
   63.2722  -24.4561    1.1269 H   0  0
   62.4739  -29.6400    1.2606 H   0  0
   61.9085  -30.2117   -0.3278 H   0  0
   60.7953  -23.4469    0.6744 H   0  0
   64.5844  -29.1175   -0.6261 H   0  0
   64.2782  -33.0985    0.6816 H   0  0
   62.8043  -32.3857   -0.0158 H   0  0
   63.3469  -31.8974    1.6074 H   0  0
  1  2  1  0
  2  3  1  0
  3  4  1  0
  4  5  1  0
  5  1  1  0
  3  6  1  0
  1  7  1  0
  4  8  1  0
  2  9  1  0
  7 10  1  0
  8 11  1  0
 11 12  1  0
 12 13  1  0
 12 14  2  0
  5 15  1  0
 15 16  1  0
 16 17  1  0
 17 18  1  0
 18 19  1  0
 19 20  1  0
 20 21  1  0
 21 22  1  0
 22 23  1  0
 22 24  2  0
 23 25  1  0
 25 26  1  0
 26 27  1  0
 27 28  1  0
 28 29  1  0
 29 30  1  0
 30 31  1  0
 31 32  1  0
 32 33  1  0
 32 34  2  0
 33 35  1  0
 35 36  1  0
 36 37  1  0
 37 38  1  0
 38 39  1  0
 39 40  1  0
 40 41  1  0
 41 42  1  0
 42 43  1  0
 43 44  1  0
 44 45  1  0
 45 41  1  0
 45 46  1  0
 43 47  1  0
 44 48  1  0
 42 49  1  0
 46 50  1  0
 49 51  1  0
 51 52  1  0
 52 53  2  0
 52 54  1  0
  1 55  1  0
  2 56  1  0
  3 57  1  0
  4 58  1  0
  6 59  1  0
  7 60  1  0
  7 61  1  0
  8 62  1  0
  8 63  1  0
  9 64  1  0
 10 65  1  0
 11 66  1  0
 13 67  1  0
 13 68  1  0
 13 69  1  0
 15 70  1  0
 15 71  1  0
 16 72  1  0
 16 73  1  0
 17 74  1  0
 17 75  1  0
 18 76  1  0
 18 77  1  0
 19 78  1  0
 19 79  1  0
 20 80  1  0
 20 81  1  0
 21 82  1  0
 23 83  1  0
 25 84  1  0
 25 85  1  0
 26 86  1  0
 26 87  1  0
 27 88  1  0
 27 89  1  0
 28 90  1  0
 28 91  1  0
 29 92  1  0
 29 93  1  0
 30 94  1  0
 30 95  1  0
 31 96  1  0
 33 97  1  0
 35 98  1  0
 35 99  1  0
 36100  1  0
 36101  1  0
 37102  1  0
 37103  1  0
 38104  1  0
 38105  1  0
 39106  1  0
 39107  1  0
 40108  1  0
 40109  1  0
 42110  1  0
 43111  1  0
 44112  1  0
 45113  1  0
 46114  1  0
 46115  1  0
 47116  1  0
 48117  1  0
 49118  1  0
 49119  1  0
 50120  1  0
 51121  1  0
 54122  1  0
 54123  1  0
 54124  1  0
M  END
> <Name>
9a Pingitore et al., 2022

> <Clean Energy>
127.900413513184

> <Reference>
Pingitore et al., 2022

> <Forcefield>
MMFF

> <ForcefieldBase>
MMFF

> <ForcefieldFFML>
<?xml version="1.0" encoding="UTF-8"?>
<!DOCTYPE ffml SYSTEM "Ffml.dtd">
<ffml version="1.0">
<forcefield name="9a Pingitore et al., 2022-MMFF" derivedFrom="MMFF" base="MMFF">
<atomTypes>
<atomType
 name="C100"
 element="C"
 mass="12.011"
 annotation=""/>
<atomType
 name="N101"
 element="N"
 mass="14.007"
 annotation=""/>
<atomType
 name="O102"
 element="O"
 mass="16"
 annotation=""/>
<atomType
 name="S103"
 element="S"
 mass="32.066"
 annotation=""/>
<atomType
 name="H104"
 element="H"
 mass="1.008"
 annotation=""/>
</atomTypes>
<parameters>
</parameters>
</forcefield>
</ffml>

$$$$
9b Pingitore et al., 2022
  SciTegic07212313593D

126127  0  0  0  0            999 V2000
   27.5127  -26.6523   -0.3232 C   0  0  2  0  0  0
   26.4046  -27.5688    0.2641 C   0  0  2  0  0  0
   26.7862  -28.8605   -0.3794 C   0  0  1  0  0  0
   28.2385  -28.8774    0.2094 C   0  0  2  0  0  0
   28.7565  -27.5234   -0.2334 N   0  0
   25.9909  -29.9737    0.0443 O   0  0
   27.5352  -25.2946    0.4002 C   0  0
   29.0533  -30.0859   -0.2666 C   0  0
   25.0784  -27.0915   -0.0011 O   0  0
   26.2656  -24.6470    0.2305 O   0  0
   28.4323  -31.2956    0.1639 N   0  0
   29.0900  -32.4394    0.0127 C   0  0
   28.4652  -33.7294    0.4547 C   0  0
   30.2174  -32.4359   -0.4870 O   0  0
   30.1375  -26.8741    0.1439 C   0  0
   31.4718  -27.7401   -0.1598 C   0  0
   32.8506  -26.9700    0.1772 C   0  0
   34.1612  -27.8804   -0.1059 C   0  0
   35.5744  -27.1216    0.1546 C   0  0
   36.8660  -28.0761   -0.1002 C   0  0
   38.2242  -27.3941    0.0703 N   0  0
   39.5066  -28.1575   -0.0097 C   0  0
   40.8547  -27.5032    0.0755 N   0  0
   39.4355  -29.7100   -0.1921 S   0  0
   42.1677  -28.3024   -0.0129 C   0  0
   43.5449  -27.4121    0.0635 C   0  0
   44.8372  -28.2377   -0.0261 O   0  0
   46.1252  -27.4062    0.0461 C   0  0
   47.5199  -28.2776   -0.0540 C   0  0
   48.8031  -27.4381    0.0225 O   0  0
   50.1072  -28.2444   -0.0875 C   0  0
   51.4686  -27.3288    0.0069 C   0  0
   52.8049  -28.0884   -0.1148 N   0  0
   54.1334  -27.4009    0.0389 C   0  0
   55.4460  -28.1130   -0.0771 N   0  0
   56.7741  -27.4255    0.2654 C   0  0
   58.1205  -28.1996   -0.2296 C   0  0
   59.4970  -27.4879    0.2807 C   0  0
   60.8578  -28.1617   -0.2971 C   0  0
   62.2149  -27.4963    0.2946 C   0  0
   63.5687  -28.0485   -0.4196 C   0  0
   64.9325  -27.4821    0.1079 N   0  0
   66.2828  -28.0883   -0.2606 C   0  0  1  0  0  0
   67.2712  -27.0928    0.4270 C   0  0  2  0  0  0
   66.6960  -25.8884   -0.2305 C   0  0  1  0  0  0
   65.2146  -25.9876    0.2372 C   0  0  1  0  0  0
   64.3688  -24.9874   -0.5773 C   0  0
   68.6440  -27.3303    0.0851 O   0  0
   67.3050  -24.6356    0.0978 O   0  0
   66.5206  -29.5483    0.1777 C   0  0
   67.8847  -29.8882   -0.1889 N   0  0
   64.8415  -23.6598   -0.3352 O   0  0
   68.3976  -31.0942    0.0591 C   0  0
   69.8216  -31.3935   -0.3319 C   0  0
   67.7143  -31.9609    0.6066 O   0  0
   54.1491  -25.8653    0.3376 S   0  0
   27.2913  -26.4770   -1.3759 H   0  0
   26.5448  -27.6522    1.3419 H   0  0
   26.7997  -28.7735   -1.4659 H   0  0
   28.1797  -28.8958    1.2977 H   0  0
   26.0907  -30.1011    1.0818 H   0  0
   27.7255  -25.4507    1.4620 H   0  0
   28.3221  -24.6698   -0.0224 H   0  0
   29.1090  -30.0769   -1.3551 H   0  0
   30.0590  -30.0290    0.1497 H   0  0
   24.9581  -26.1378    0.4214 H   0  0
   26.0823  -24.4975   -0.7925 H   0  0
   27.4554  -31.2818    0.6002 H   0  0
   29.1492  -34.5533    0.2516 H   0  0
   27.5343  -33.8881   -0.0897 H   0  0
   28.2574  -33.6856    1.5238 H   0  0
   30.2215  -25.9384   -0.4090 H   0  0
   30.1196  -26.6644    1.2134 H   0  0
   31.4329  -28.6496    0.4397 H   0  0
   31.4762  -28.0016   -1.2179 H   0  0
   32.9090  -26.0735   -0.4400 H   0  0
   32.8436  -26.6872    1.2299 H   0  0
   34.1175  -28.7528    0.5460 H   0  0
   34.1340  -28.2023   -1.1469 H   0  0
   35.6376  -26.2656   -0.5172 H   0  0
   35.5970  -26.7756    1.1880 H   0  0
   36.8154  -28.9067    0.6038 H   0  0
   36.8066  -28.4586   -1.1191 H   0  0
   38.2573  -26.3401    0.2521 H   0  0
   40.9052  -26.4419    0.2024 H   0  0
   42.1827  -29.0151    0.8116 H   0  0
   42.1689  -28.8418   -0.9601 H   0  0
   43.5370  -26.7000   -0.7617 H   0  0
   43.5500  -26.8720    1.0102 H   0  0
   46.1130  -26.6912   -0.7766 H   0  0
   46.1288  -26.8694    0.9947 H   0  0
   47.5328  -28.9943    0.7671 H   0  0
   47.5194  -28.8124   -1.0038 H   0  0
   50.1283  -28.9742    0.7218 H   0  0
   50.1092  -28.7637   -1.0459 H   0  0
   51.4304  -26.5913   -0.7949 H   0  0
   51.4614  -26.8194    0.9705 H   0  0
   52.7863  -29.1393   -0.3150 H   0  0
   55.4578  -29.1304   -0.4084 H   0  0
   56.7679  -26.4375   -0.1949 H   0  0
   56.8273  -27.3216    1.3491 H   0  0
   58.0948  -29.2191    0.1551 H   0  0
   58.1260  -28.2220   -1.3194 H   0  0
   59.4757  -26.4434   -0.0303 H   0  0
   59.5254  -27.5429    1.3689 H   0  0
   60.8534  -29.2210   -0.0405 H   0  0
   60.8639  -28.0500   -1.3814 H   0  0
   62.1628  -26.4173    0.1489 H   0  0
   62.2718  -27.7171    1.3605 H   0  0
   63.5903  -29.1307   -0.2912 H   0  0
   63.5017  -27.8092   -1.4809 H   0  0
   66.4135  -28.0214   -1.3407 H   0  0
   67.1264  -27.0669    1.5070 H   0  0
   66.7337  -26.0256   -1.3111 H   0  0
   65.1621  -25.7124    1.2906 H   0  0
   64.4569  -25.2168   -1.6393 H   0  0
   63.3245  -25.0627   -0.2742 H   0  0
   68.9159  -28.3005    0.3805 H   0  0
   67.2243  -24.4667    1.1309 H   0  0
   66.3893  -29.6408    1.2558 H   0  0
   65.8207  -30.2102   -0.3323 H   0  0
   68.4938  -29.1519   -0.6703 H   0  0
   64.7571  -23.4388    0.6878 H   0  0
   70.0673  -32.4186   -0.0548 H   0  0
   70.4927  -30.7073    0.1847 H   0  0
   69.9365  -31.2714   -1.4090 H   0  0
  1  2  1  0
  2  3  1  0
  3  4  1  0
  4  5  1  0
  5  1  1  0
  3  6  1  0
  1  7  1  0
  4  8  1  0
  2  9  1  0
  7 10  1  0
  8 11  1  0
 11 12  1  0
 12 13  1  0
 12 14  2  0
  5 15  1  0
 15 16  1  0
 16 17  1  0
 17 18  1  0
 18 19  1  0
 19 20  1  0
 20 21  1  0
 21 22  1  0
 22 23  1  0
 22 24  2  0
 23 25  1  0
 25 26  1  0
 26 27  1  0
 27 28  1  0
 28 29  1  0
 29 30  1  0
 30 31  1  0
 31 32  1  0
 32 33  1  0
 33 34  1  0
 34 35  1  0
 35 36  1  0
 36 37  1  0
 37 38  1  0
 38 39  1  0
 39 40  1  0
 40 41  1  0
 41 42  1  0
 42 43  1  0
 43 44  1  0
 44 45  1  0
 45 46  1  0
 46 42  1  0
 46 47  1  0
 44 48  1  0
 45 49  1  0
 43 50  1  0
 50 51  1  0
 47 52  1  0
 51 53  1  0
 53 54  1  0
 53 55  2  0
 34 56  2  0
  1 57  1  0
  2 58  1  0
  3 59  1  0
  4 60  1  0
  6 61  1  0
  7 62  1  0
  7 63  1  0
  8 64  1  0
  8 65  1  0
  9 66  1  0
 10 67  1  0
 11 68  1  0
 13 69  1  0
 13 70  1  0
 13 71  1  0
 15 72  1  0
 15 73  1  0
 16 74  1  0
 16 75  1  0
 17 76  1  0
 17 77  1  0
 18 78  1  0
 18 79  1  0
 19 80  1  0
 19 81  1  0
 20 82  1  0
 20 83  1  0
 21 84  1  0
 23 85  1  0
 25 86  1  0
 25 87  1  0
 26 88  1  0
 26 89  1  0
 28 90  1  0
 28 91  1  0
 29 92  1  0
 29 93  1  0
 31 94  1  0
 31 95  1  0
 32 96  1  0
 32 97  1  0
 33 98  1  0
 35 99  1  0
 36100  1  0
 36101  1  0
 37102  1  0
 37103  1  0
 38104  1  0
 38105  1  0
 39106  1  0
 39107  1  0
 40108  1  0
 40109  1  0
 41110  1  0
 41111  1  0
 43112  1  0
 44113  1  0
 45114  1  0
 46115  1  0
 47116  1  0
 47117  1  0
 48118  1  0
 49119  1  0
 50120  1  0
 50121  1  0
 51122  1  0
 52123  1  0
 54124  1  0
 54125  1  0
 54126  1  0
M  END
> <Name>
9b Pingitore et al., 2022

> <Clean Energy>
136.976623535156

> <Reference>
Pingitore et al., 2022

> <Forcefield>
MMFF

> <ForcefieldBase>
MMFF

> <ForcefieldFFML>
<?xml version="1.0" encoding="UTF-8"?>
<!DOCTYPE ffml SYSTEM "Ffml.dtd">
<ffml version="1.0">
<forcefield name="9b Pingitore et al., 2022-MMFF" derivedFrom="MMFF" base="MMFF">
<atomTypes>
<atomType
 name="C100"
 element="C"
 mass="12.011"
 annotation=""/>
<atomType
 name="N101"
 element="N"
 mass="14.007"
 annotation=""/>
<atomType
 name="O102"
 element="O"
 mass="16"
 annotation=""/>
<atomType
 name="S103"
 element="S"
 mass="32.066"
 annotation=""/>
<atomType
 name="H104"
 element="H"
 mass="1.008"
 annotation=""/>
</atomTypes>
<parameters>
</parameters>
</forcefield>
</ffml>

$$$$
9c Pingitore et al., 2022
  SciTegic07212313593D

139140  0  0  0  0            999 V2000
   27.6785  -18.5925   -0.3229 C   0  0  2  0  0  0
   26.5710  -19.5096    0.2638 C   0  0  2  0  0  0
   26.9527  -20.8020   -0.3785 C   0  0  1  0  0  0
   28.4066  -20.8166    0.2088 C   0  0  2  0  0  0
   28.9230  -19.4632   -0.2330 N   0  0
   26.1588  -21.9150    0.0443 O   0  0
   27.6997  -17.2348    0.4002 C   0  0
   29.2205  -22.0246   -0.2662 C   0  0
   25.2442  -19.0336   -0.0010 O   0  0
   26.4294  -16.5884    0.2304 O   0  0
   28.6056  -23.2363    0.1620 N   0  0
   29.2553  -24.3770    0.0165 C   0  0
   28.6424  -25.6693    0.4539 C   0  0
   30.3957  -24.3712   -0.4873 O   0  0
   30.3051  -18.8131    0.1433 C   0  0
   31.6407  -19.6795   -0.1592 C   0  0
   33.0209  -18.9086    0.1754 C   0  0
   34.3333  -19.8194   -0.1055 C   0  0
   35.7479  -19.0584    0.1505 C   0  0
   37.0434  -20.0119   -0.1009 C   0  0
   38.4028  -19.3254    0.0630 N   0  0
   39.6904  -20.0864   -0.0092 C   0  0
   41.0399  -19.4251    0.0693 N   0  0
   39.6238  -21.6410   -0.1752 S   0  0
   42.3620  -20.2197    0.0074 C   0  0
   43.7389  -19.3172    0.0452 C   0  0
   45.1386  -20.1929   -0.0024 C   0  0
   46.4349  -19.3592    0.0217 O   0  0
   47.7330  -20.1936   -0.0007 C   0  0
   49.1348  -19.3148    0.0084 C   0  0
   50.4345  -20.1489    0.0002 O   0  0
   51.7344  -19.3149   -0.0081 C   0  0
   53.1347  -20.1954    0.0010 C   0  0
   54.4355  -19.3654   -0.0218 O   0  0
   55.7255  -20.2078    0.0024 C   0  0
   57.1345  -19.3478   -0.0460 C   0  0
   58.4950  -20.2730   -0.0079 C   0  0
   59.8349  -19.5096   -0.0701 N   0  0
   61.1624  -20.2111    0.0102 C   0  0
   62.4754  -19.4973   -0.0623 N   0  0
   63.8019  -20.2422    0.1070 C   0  0
   65.1451  -19.3621   -0.1539 C   0  0
   66.5072  -20.2085    0.1097 C   0  0
   67.8814  -19.3987   -0.1782 C   0  0
   69.1879  -20.2813    0.1646 C   0  0
   70.6033  -19.5549   -0.1430 C   0  0
   71.9071  -20.3520    0.2349 N   0  0
   61.1774  -21.7665    0.1791 S   0  0
   72.2645  -21.7563   -0.2040 C   0  0  1  0  0  0
   73.7113  -21.9079    0.3790 C   0  0  2  0  0  0
   74.2374  -20.6683   -0.2661 C   0  0  1  0  0  0
   73.2437  -19.6286    0.3213 C   0  0  1  0  0  0
   73.3783  -18.2783   -0.4032 C   0  0
   74.3700  -23.1056   -0.0429 O   0  0
   75.6109  -20.3483   -0.0046 O   0  0
   71.3181  -22.8608    0.2763 C   0  0
   74.7155  -17.7832   -0.2358 O   0  0
   71.7738  -24.1384   -0.1505 N   0  0
   70.9773  -25.1813   -0.0203 C   0  0
   71.4115  -26.5429   -0.4555 C   0  0
   69.8379  -25.0215    0.4705 O   0  0
   27.4572  -18.4174   -1.3758 H   0  0
   26.7112  -19.5925    1.3416 H   0  0
   26.9656  -20.7153   -1.4650 H   0  0
   28.3484  -20.8350    1.2971 H   0  0
   26.2581  -22.0423    1.0819 H   0  0
   27.8900  -17.3907    1.4621 H   0  0
   28.4860  -16.6093   -0.0223 H   0  0
   29.2756  -22.0150   -1.3547 H   0  0
   30.2263  -21.9659    0.1496 H   0  0
   25.1229  -18.0802    0.4219 H   0  0
   26.2461  -16.4391   -0.7926 H   0  0
   27.6279  -23.2224    0.5967 H   0  0
   29.3332  -26.4872    0.2493 H   0  0
   27.7131  -25.8342   -0.0913 H   0  0
   28.4338  -25.6296    1.5231 H   0  0
   30.3889  -17.8783   -0.4110 H   0  0
   30.2872  -18.6017    1.2124 H   0  0
   31.6022  -20.5877    0.4423 H   0  0
   31.6445  -19.9434   -1.2167 H   0  0
   33.0789  -18.0138   -0.4442 H   0  0
   33.0139  -18.6230    1.2273 H   0  0
   34.2909  -20.6892    0.5501 H   0  0
   34.3053  -20.1456   -1.1451 H   0  0
   35.8095  -18.2052   -0.5250 H   0  0
   35.7709  -18.7078    1.1824 H   0  0
   36.9960  -20.8383    0.6083 H   0  0
   36.9830  -20.4008   -1.1174 H   0  0
   38.4333  -18.2696    0.2343 H   0  0
   41.0848  -18.3610    0.1721 H   0  0
   42.3840  -20.9001    0.8587 H   0  0
   42.3640  -20.7951   -0.9183 H   0  0
   43.7287  -18.6462   -0.8137 H   0  0
   43.7359  -18.7316    0.9645 H   0  0
   45.1495  -20.8583    0.8608 H   0  0
   45.1351  -20.7845   -0.9179 H   0  0
   47.7340  -20.8392    0.8776 H   0  0
   47.7247  -20.8060   -0.9024 H   0  0
   49.1383  -18.6768   -0.8754 H   0  0
   49.1380  -18.6947    0.9048 H   0  0
   51.7316  -18.6949   -0.9046 H   0  0
   51.7314  -18.6768    0.8756 H   0  0
   53.1416  -20.8075    0.9029 H   0  0
   53.1320  -20.8412   -0.8771 H   0  0
   55.7238  -20.7989    0.9181 H   0  0
   55.7083  -20.8736   -0.8605 H   0  0
   57.1456  -18.7626   -0.9656 H   0  0
   57.1542  -18.6766    0.8126 H   0  0
   58.4815  -20.8475    0.9183 H   0  0
   58.4593  -20.9535   -0.8586 H   0  0
   59.8186  -18.4447   -0.1740 H   0  0
   62.4875  -18.4417   -0.2365 H   0  0
   63.8441  -20.6225    1.1277 H   0  0
   63.8081  -21.0777   -0.5931 H   0  0
   65.1421  -19.0190   -1.1885 H   0  0
   65.1340  -18.5015    0.5149 H   0  0
   66.5127  -20.5242    1.1529 H   0  0
   66.4902  -21.0865   -0.5361 H   0  0
   67.9115  -19.1207   -1.2318 H   0  0
   67.8943  -18.4984    0.4361 H   0  0
   69.1591  -20.5304    1.2254 H   0  0
   69.1422  -21.1966   -0.4255 H   0  0
   70.6419  -19.3477   -1.2124 H   0  0
   70.6190  -18.6159    0.4104 H   0  0
   72.3171  -21.7841   -1.2924 H   0  0
   73.7111  -21.8186    1.4653 H   0  0
   74.0865  -20.7360   -1.3435 H   0  0
   73.4856  -19.4791    1.3736 H   0  0
   73.1696  -18.4120   -1.4647 H   0  0
   72.6703  -17.5657    0.0198 H   0  0
   73.8147  -23.9400    0.2702 H   0  0
   75.7496  -20.2166    1.0279 H   0  0
   71.2725  -22.8435    1.3652 H   0  0
   70.3236  -22.6817   -0.1324 H   0  0
   74.9164  -17.6553    0.7869 H   0  0
   72.7507  -24.2522   -0.5720 H   0  0
   70.6124  -27.2585   -0.2625 H   0  0
   72.3025  -26.8355    0.1000 H   0  0
   71.6367  -26.5294   -1.5219 H   0  0
  1  2  1  0
  2  3  1  0
  3  4  1  0
  4  5  1  0
  5  1  1  0
  3  6  1  0
  1  7  1  0
  4  8  1  0
  2  9  1  0
  7 10  1  0
  8 11  1  0
 11 12  1  0
 12 13  1  0
 12 14  2  0
  5 15  1  0
 15 16  1  0
 16 17  1  0
 17 18  1  0
 18 19  1  0
 19 20  1  0
 20 21  1  0
 21 22  1  0
 22 23  1  0
 22 24  2  0
 23 25  1  0
 25 26  1  0
 26 27  1  0
 27 28  1  0
 28 29  1  0
 29 30  1  0
 30 31  1  0
 31 32  1  0
 32 33  1  0
 33 34  1  0
 34 35  1  0
 35 36  1  0
 36 37  1  0
 37 38  1  0
 38 39  1  0
 39 40  1  0
 40 41  1  0
 41 42  1  0
 42 43  1  0
 43 44  1  0
 44 45  1  0
 45 46  1  0
 46 47  1  0
 39 48  2  0
 47 49  1  0
 49 50  1  0
 50 51  1  0
 51 52  1  0
 52 47  1  0
 52 53  1  0
 50 54  1  0
 51 55  1  0
 49 56  1  0
 53 57  1  0
 56 58  1  0
 58 59  1  0
 59 60  1  0
 59 61  2  0
  1 62  1  0
  2 63  1  0
  3 64  1  0
  4 65  1  0
  6 66  1  0
  7 67  1  0
  7 68  1  0
  8 69  1  0
  8 70  1  0
  9 71  1  0
 10 72  1  0
 11 73  1  0
 13 74  1  0
 13 75  1  0
 13 76  1  0
 15 77  1  0
 15 78  1  0
 16 79  1  0
 16 80  1  0
 17 81  1  0
 17 82  1  0
 18 83  1  0
 18 84  1  0
 19 85  1  0
 19 86  1  0
 20 87  1  0
 20 88  1  0
 21 89  1  0
 23 90  1  0
 25 91  1  0
 25 92  1  0
 26 93  1  0
 26 94  1  0
 27 95  1  0
 27 96  1  0
 29 97  1  0
 29 98  1  0
 30 99  1  0
 30100  1  0
 32101  1  0
 32102  1  0
 33103  1  0
 33104  1  0
 35105  1  0
 35106  1  0
 36107  1  0
 36108  1  0
 37109  1  0
 37110  1  0
 38111  1  0
 40112  1  0
 41113  1  0
 41114  1  0
 42115  1  0
 42116  1  0
 43117  1  0
 43118  1  0
 44119  1  0
 44120  1  0
 45121  1  0
 45122  1  0
 46123  1  0
 46124  1  0
 49125  1  0
 50126  1  0
 51127  1  0
 52128  1  0
 53129  1  0
 53130  1  0
 54131  1  0
 55132  1  0
 56133  1  0
 56134  1  0
 57135  1  0
 58136  1  0
 60137  1  0
 60138  1  0
 60139  1  0
M  END
> <Name>
9c Pingitore et al., 2022

> <Clean Energy>
146.495849609375

> <Reference>
Pingitore et al., 2022

> <Forcefield>
MMFF

> <ForcefieldBase>
MMFF

> <ForcefieldFFML>
<?xml version="1.0" encoding="UTF-8"?>
<!DOCTYPE ffml SYSTEM "Ffml.dtd">
<ffml version="1.0">
<forcefield name="9c Pingitore et al., 2022-MMFF" derivedFrom="MMFF" base="MMFF">
<atomTypes>
<atomType
 name="C100"
 element="C"
 mass="12.011"
 annotation=""/>
<atomType
 name="N101"
 element="N"
 mass="14.007"
 annotation=""/>
<atomType
 name="O102"
 element="O"
 mass="16"
 annotation=""/>
<atomType
 name="S103"
 element="S"
 mass="32.066"
 annotation=""/>
<atomType
 name="H104"
 element="H"
 mass="1.008"
 annotation=""/>
</atomTypes>
<parameters>
</parameters>
</forcefield>
</ffml>

$$$$
9d Pingitore et al., 2022
  SciTegic07212313593D

129132  0  0  0  0            999 V2000
   21.7584  -23.8320   -0.3213 C   0  0  2  0  0  0
   20.6594  -24.7578    0.2672 C   0  0  2  0  0  0
   21.0474  -26.0465   -0.3831 C   0  0  1  0  0  0
   22.4990  -26.0556    0.1980 C   0  0  2  0  0  0
   23.0047  -24.6951   -0.2402 N   0  0
   20.2633  -27.1673    0.0389 O   0  0
   21.7773  -22.4744    0.4023 C   0  0
   23.3236  -27.2559   -0.2863 C   0  0
   19.3295  -24.2888    0.0080 O   0  0
   20.5039  -21.8334    0.2375 O   0  0
   22.7352  -28.4796    0.1400 N   0  0
   23.4402  -29.5964    0.0144 C   0  0
   22.8617  -30.9085    0.4490 C   0  0
   24.5817  -29.5486   -0.4584 O   0  0
   24.3788  -24.0500    0.1467 C   0  0
   25.6912  -24.9199   -0.1953 C   0  0
   27.0804  -24.2282    0.2009 C   0  0
   28.3247  -25.1972   -0.1214 C   0  0
   29.7644  -24.5835    0.2611 C   0  0
   30.9621  -25.6316   -0.0149 C   0  0
   32.3397  -25.1183    0.3409 N   0  0
   33.5437  -25.9864    0.2804 C   0  0
   34.8977  -25.4277    0.5454 N   0  0
   33.3610  -27.4839   -0.1296 S   0  0
   36.2401  -26.1016    0.3766 C   0  0
   36.4164  -27.4191    0.1773 C   0  0
   37.8146  -27.9979   -0.1011 C   0  0
   38.8949  -27.1973   -0.0997 C   0  0
   38.6746  -25.7547    0.1679 C   0  0
   37.4516  -25.2482    0.3845 C   0  0
   40.5558  -27.7234   -0.7730 S   0  0
   41.8398  -28.9075   -0.1111 C   0  0
   41.3038  -26.4363   -1.0742 O   0  0
   40.1697  -28.3827   -2.0797 O   0  0
   41.6615  -30.2392   -0.0842 C   0  0
   42.8545  -31.1737    0.1739 C   0  0
   44.0971  -30.6845    0.3262 C   0  0
   44.2560  -29.2122    0.3047 C   0  0
   43.2126  -28.3935    0.1067 C   0  0
   45.3411  -31.5277    0.4587 N   0  0
   45.4763  -32.9977    0.3042 C   0  0
   44.2151  -33.9082    0.1527 S   0  0
   46.8110  -33.6371    0.2563 N   0  0
   46.9578  -35.1352    0.2078 C   0  0
   48.4566  -35.6741   -0.0307 C   0  0
   48.5052  -37.2736    0.0948 C   0  0
   49.9400  -37.9431   -0.1626 C   0  0
   49.8596  -39.5097    0.1302 C   0  0
   51.2017  -40.3459   -0.1498 C   0  0
   51.1424  -41.8653    0.2288 N   0  0
   50.0861  -42.8640   -0.2041 C   0  0  1  0  0  0
   50.6639  -44.1939    0.3787 C   0  0  2  0  0  0
   52.0015  -44.0477   -0.2708 C   0  0  1  0  0  0
   52.4228  -42.6732    0.3172 C   0  0  1  0  0  0
   53.6661  -42.1252   -0.4049 C   0  0
   49.9381  -45.3542   -0.0394 O   0  0
   52.9530  -45.0873   -0.0089 O   0  0
   48.6595  -42.5763    0.2890 C   0  0
   54.7546  -43.0449   -0.2360 O   0  0
   47.7539  -43.5872   -0.1326 N   0  0
   46.4535  -43.3506   -0.0165 C   0  0
   46.0680  -42.2692    0.4435 O   0  0
   45.4557  -44.3816   -0.4465 C   0  0
   21.5312  -23.6564   -1.3728 H   0  0
   20.8040  -24.8437    1.3441 H   0  0
   21.0559  -25.9554   -1.4693 H   0  0
   22.4446  -26.0795    1.2864 H   0  0
   20.3685  -27.2982    1.0754 H   0  0
   21.9723  -22.6298    1.4634 H   0  0
   22.5595  -21.8457   -0.0231 H   0  0
   23.3689  -27.2419   -1.3753 H   0  0
   24.3321  -27.1838    0.1208 H   0  0
   19.2043  -23.3372    0.4338 H   0  0
   20.3161  -21.6846   -0.7849 H   0  0
   21.7479  -28.4984    0.5520 H   0  0
   23.5854  -31.7031    0.2678 H   0  0
   21.9521  -31.1102   -0.1167 H   0  0
   22.6262  -30.8679    1.5125 H   0  0
   24.4615  -23.1005   -0.3821 H   0  0
   24.3704  -23.8684    1.2214 H   0  0
   25.6193  -25.8663    0.3407 H   0  0
   25.7015  -25.1096   -1.2686 H   0  0
   27.1925  -23.3046   -0.3670 H   0  0
   27.0733  -24.0012    1.2670 H   0  0
   28.1895  -26.1227    0.4382 H   0  0
   28.3198  -25.4139   -1.1896 H   0  0
   29.9354  -23.6885   -0.3371 H   0  0
   29.7646  -24.3197    1.3187 H   0  0
   30.7710  -26.5291    0.5733 H   0  0
   30.9562  -25.8834   -1.0753 H   0  0
   32.4504  -24.0986    0.6455 H   0  0
   34.9241  -24.4190    0.9012 H   0  0
   35.5561  -28.0875    0.2135 H   0  0
   37.9301  -29.0632   -0.3006 H   0  0
   39.5343  -25.0849    0.1891 H   0  0
   37.3460  -24.1795    0.5715 H   0  0
   40.6682  -30.6580   -0.2457 H   0  0
   42.6902  -32.2495    0.2343 H   0  0
   45.2468  -28.7829    0.4537 H   0  0
   43.3794  -27.3163    0.1060 H   0  0
   46.2408  -30.9985    0.6940 H   0  0
   47.6875  -33.0234    0.2561 H   0  0
   46.6021  -35.5389    1.1558 H   0  0
   46.3331  -35.5083   -0.6038 H   0  0
   48.7883  -35.3823   -1.0271 H   0  0
   49.1184  -35.2355    0.7161 H   0  0
   48.1857  -37.5412    1.1020 H   0  0
   47.8060  -37.6887   -0.6310 H   0  0
   50.2343  -37.7826   -1.1998 H   0  0
   50.6767  -37.4878    0.4993 H   0  0
   49.5982  -39.6400    1.1804 H   0  0
   49.0702  -39.9261   -0.4956 H   0  0
   51.4260  -40.2739   -1.2140 H   0  0
   52.0079  -39.8885    0.4238 H   0  0
   50.0803  -42.9259   -1.2923 H   0  0
   50.7444  -44.1478    1.4648 H   0  0
   51.8669  -43.9495   -1.3480 H   0  0
   52.6699  -42.8111    1.3698 H   0  0
   53.4489  -42.0089   -1.4667 H   0  0
   53.9370  -41.1583    0.0192 H   0  0
   48.9400  -45.2763    0.2776 H   0  0
   53.1385  -45.1407    1.0233 H   0  0
   48.6621  -42.5339    1.3782 H   0  0
   48.3321  -41.6169   -0.1116 H   0  0
   54.9629  -43.1573    0.7870 H   0  0
   48.1109  -44.5132   -0.5325 H   0  0
   44.4471  -44.0060   -0.2742 H   0  0
   45.6057  -45.2953    0.1286 H   0  0
   45.5871  -44.5949   -1.5074 H   0  0
  1  2  1  0
  2  3  1  0
  3  4  1  0
  4  5  1  0
  5  1  1  0
  3  6  1  0
  1  7  1  0
  4  8  1  0
  2  9  1  0
  7 10  1  0
  8 11  1  0
 11 12  1  0
 12 13  1  0
 12 14  2  0
  5 15  1  0
 15 16  1  0
 16 17  1  0
 17 18  1  0
 18 19  1  0
 19 20  1  0
 20 21  1  0
 21 22  1  0
 22 23  1  0
 22 24  2  0
 23 25  1  0
 25 26  2  0
 26 27  1  0
 27 28  2  0
 28 29  1  0
 29 30  2  0
 30 25  1  0
 28 31  1  0
 31 32  1  0
 31 33  2  0
 31 34  2  0
 32 35  2  0
 35 36  1  0
 36 37  2  0
 37 38  1  0
 38 39  2  0
 39 32  1  0
 37 40  1  0
 40 41  1  0
 41 42  2  0
 41 43  1  0
 43 44  1  0
 44 45  1  0
 45 46  1  0
 46 47  1  0
 47 48  1  0
 48 49  1  0
 49 50  1  0
 50 51  1  0
 51 52  1  0
 52 53  1  0
 53 54  1  0
 54 50  1  0
 54 55  1  0
 52 56  1  0
 53 57  1  0
 51 58  1  0
 55 59  1  0
 58 60  1  0
 60 61  1  0
 61 62  2  0
 61 63  1  0
  1 64  1  0
  2 65  1  0
  3 66  1  0
  4 67  1  0
  6 68  1  0
  7 69  1  0
  7 70  1  0
  8 71  1  0
  8 72  1  0
  9 73  1  0
 10 74  1  0
 11 75  1  0
 13 76  1  0
 13 77  1  0
 13 78  1  0
 15 79  1  0
 15 80  1  0
 16 81  1  0
 16 82  1  0
 17 83  1  0
 17 84  1  0
 18 85  1  0
 18 86  1  0
 19 87  1  0
 19 88  1  0
 20 89  1  0
 20 90  1  0
 21 91  1  0
 23 92  1  0
 26 93  1  0
 27 94  1  0
 29 95  1  0
 30 96  1  0
 35 97  1  0
 36 98  1  0
 38 99  1  0
 39100  1  0
 40101  1  0
 43102  1  0
 44103  1  0
 44104  1  0
 45105  1  0
 45106  1  0
 46107  1  0
 46108  1  0
 47109  1  0
 47110  1  0
 48111  1  0
 48112  1  0
 49113  1  0
 49114  1  0
 51115  1  0
 52116  1  0
 53117  1  0
 54118  1  0
 55119  1  0
 55120  1  0
 56121  1  0
 57122  1  0
 58123  1  0
 58124  1  0
 59125  1  0
 60126  1  0
 63127  1  0
 63128  1  0
 63129  1  0
M  END
> <Name>
9d Pingitore et al., 2022

> <Clean Energy>
161.937377929688

> <IC50>
11nM

> <Ki>
6.1

> <Reference>
Pingitore et al., 2022

> <Forcefield>
MMFF

> <ForcefieldBase>
MMFF

> <ForcefieldFFML>
<?xml version="1.0" encoding="UTF-8"?>
<!DOCTYPE ffml SYSTEM "Ffml.dtd">
<ffml version="1.0">
<forcefield name="9d Pingitore et al., 2022-MMFF" derivedFrom="MMFF" base="MMFF">
<atomTypes>
<atomType
 name="C100"
 element="C"
 mass="12.011"
 annotation=""/>
<atomType
 name="N101"
 element="N"
 mass="14.007"
 annotation=""/>
<atomType
 name="O102"
 element="O"
 mass="16"
 annotation=""/>
<atomType
 name="S103"
 element="S"
 mass="32.066"
 annotation=""/>
<atomType
 name="H104"
 element="H"
 mass="1.008"
 annotation=""/>
</atomTypes>
<parameters>
</parameters>
</forcefield>
</ffml>

$$$$
9e Pingitore et al., 2022
  SciTegic07212313593D

122124  0  0  0  0            999 V2000
   22.8004  -18.5659   -0.3227 C   0  0  2  0  0  0
   21.6964  -19.4872    0.2635 C   0  0  2  0  0  0
   22.0841  -20.7774   -0.3800 C   0  0  1  0  0  0
   23.5362  -20.7874    0.2096 C   0  0  2  0  0  0
   24.0468  -19.4308   -0.2323 N   0  0
   21.2939  -21.8942    0.0424 O   0  0
   22.8177  -17.2080    0.4005 C   0  0
   24.3574  -21.9918   -0.2661 C   0  0
   20.3684  -19.0155   -0.0025 O   0  0
   21.5462  -16.5649    0.2302 O   0  0
   23.7438  -23.2058    0.1621 N   0  0
   24.4071  -24.3450    0.0134 C   0  0
   23.7916  -25.6395    0.4521 C   0  0
   25.5386  -24.3339   -0.4843 O   0  0
   25.4215  -18.7734    0.1456 C   0  0
   26.7591  -19.6300   -0.1566 C   0  0
   28.1276  -18.8461    0.1769 C   0  0
   29.4429  -19.7436   -0.1041 C   0  0
   30.8439  -18.9672    0.1480 C   0  0
   32.1377  -19.9100   -0.1046 C   0  0
   33.4873  -19.2185    0.0520 N   0  0
   34.7598  -19.9816   -0.0098 C   0  0
   36.1087  -19.3478    0.0570 N   0  0
   34.6792  -21.5415   -0.1543 S   0  0
   37.3725  -20.1945    0.0153 C   0  0
   38.7864  -19.4441    0.0087 C   0  0
   39.9367  -20.1165   -0.0004 C   0  0
   41.3057  -19.4239   -0.0095 C   0  0
   41.3061  -18.0712   -0.0093 C   0  0
   40.0209  -17.3367    0.0004 C   0  0
   38.8339  -17.9662    0.0095 C   0  0
   42.6716  -20.2296   -0.0169 C   0  0
   43.9716  -19.4356   -0.0584 N   0  0
   45.2918  -20.1245    0.0103 C   0  0
   46.5969  -19.4197   -0.0515 N   0  0
   47.9090  -20.1769    0.1101 C   0  0
   49.2543  -19.3125   -0.1505 C   0  0
   50.5997  -20.1774    0.1084 C   0  0
   51.9781  -19.3837   -0.1788 C   0  0
   53.2708  -20.2809    0.1621 C   0  0
   54.6887  -19.5666   -0.1448 C   0  0
   55.9835  -20.3722    0.2341 N   0  0
   45.3051  -21.6867    0.1571 S   0  0
   56.3329  -21.7797   -0.2053 C   0  0  1  0  0  0
   57.7767  -21.9377    0.3807 C   0  0  2  0  0  0
   58.3109  -20.7021   -0.2657 C   0  0  1  0  0  0
   57.3226  -19.6570    0.3213 C   0  0  1  0  0  0
   57.4636  -18.3072   -0.4034 C   0  0
   58.4297  -23.1400   -0.0411 O   0  0
   59.6854  -20.3886   -0.0025 O   0  0
   55.3773  -22.8782    0.2760 C   0  0
   58.8025  -17.8179   -0.2352 O   0  0
   55.8308  -24.1586   -0.1514 N   0  0
   55.0164  -25.1968   -0.0161 C   0  0
   55.4535  -26.5619   -0.4534 C   0  0
   53.8907  -25.0318    0.4678 O   0  0
   22.5789  -18.3915   -1.3756 H   0  0
   21.8362  -19.5700    1.3413 H   0  0
   22.0981  -20.6900   -1.4664 H   0  0
   23.4767  -20.8065    1.2978 H   0  0
   21.3933  -22.0215    1.0799 H   0  0
   23.0078  -17.3635    1.4625 H   0  0
   23.6026  -16.5806   -0.0217 H   0  0
   24.4141  -21.9816   -1.3546 H   0  0
   25.3624  -21.9297    0.1512 H   0  0
   20.2438  -18.0624    0.4202 H   0  0
   21.3630  -16.4160   -0.7929 H   0  0
   22.7656  -23.1980    0.5957 H   0  0
   24.4826  -26.4579    0.2501 H   0  0
   22.8634  -25.8050   -0.0951 H   0  0
   23.5805  -25.5984    1.5207 H   0  0
   25.5000  -17.8373   -0.4073 H   0  0
   25.4014  -18.5637    1.2150 H   0  0
   26.7283  -20.5377    0.4461 H   0  0
   26.7648  -19.8952   -1.2138 H   0  0
   28.1770  -17.9509   -0.4431 H   0  0
   28.1185  -18.5601    1.2287 H   0  0
   29.4106  -20.6124    0.5534 H   0  0
   29.4166  -20.0724   -1.1430 H   0  0
   30.8965  -18.1149   -0.5294 H   0  0
   30.8660  -18.6145    1.1791 H   0  0
   32.0974  -20.7349    0.6068 H   0  0
   32.0759  -20.3018   -1.1199 H   0  0
   33.5183  -18.1606    0.2099 H   0  0
   36.1886  -18.2836    0.1354 H   0  0
   37.3554  -20.8436    0.8908 H   0  0
   37.3248  -20.8016   -0.8887 H   0  0
   39.9037  -21.2060   -0.0014 H   0  0
   42.2489  -17.5242   -0.0162 H   0  0
   40.0381  -16.2469    0.0003 H   0  0
   37.9091  -17.3894    0.0173 H   0  0
   42.6931  -20.8388    0.8867 H   0  0
   42.6603  -20.8782   -0.8928 H   0  0
   43.9363  -18.3691   -0.1379 H   0  0
   46.6163  -18.3620   -0.2121 H   0  0
   47.9504  -20.5619    1.1290 H   0  0
   47.9042  -21.0094   -0.5935 H   0  0
   49.2536  -18.9660   -1.1839 H   0  0
   49.2548  -18.4539    0.5211 H   0  0
   50.6027  -20.4969    1.1505 H   0  0
   50.5705  -21.0528   -0.5404 H   0  0
   52.0109  -19.1047   -1.2320 H   0  0
   52.0014  -18.4844    0.4367 H   0  0
   53.2397  -20.5320    1.2223 H   0  0
   53.2157  -21.1944   -0.4300 H   0  0
   54.7296  -19.3606   -1.2144 H   0  0
   54.7112  -18.6272    0.4077 H   0  0
   56.3869  -21.8084   -1.2936 H   0  0
   57.7754  -21.8477    1.4670 H   0  0
   58.1604  -20.7696   -1.3431 H   0  0
   57.5648  -19.5087    1.3736 H   0  0
   57.2550  -18.4402   -1.4650 H   0  0
   56.7584  -17.5915    0.0191 H   0  0
   57.8691  -23.9713    0.2709 H   0  0
   59.8231  -20.2557    1.0299 H   0  0
   55.3299  -22.8600    1.3648 H   0  0
   54.3844  -22.6944   -0.1346 H   0  0
   59.0033  -17.6907    0.7876 H   0  0
   56.8069  -24.2804   -0.5724 H   0  0
   54.6543  -27.2781   -0.2632 H   0  0
   56.3434  -26.8549    0.1037 H   0  0
   55.6811  -26.5469   -1.5193 H   0  0
  1  2  1  0
  2  3  1  0
  3  4  1  0
  4  5  1  0
  5  1  1  0
  3  6  1  0
  1  7  1  0
  4  8  1  0
  2  9  1  0
  7 10  1  0
  8 11  1  0
 11 12  1  0
 12 13  1  0
 12 14  2  0
  5 15  1  0
 15 16  1  0
 16 17  1  0
 17 18  1  0
 18 19  1  0
 19 20  1  0
 20 21  1  0
 21 22  1  0
 22 23  1  0
 22 24  2  0
 23 25  1  0
 25 26  1  0
 26 27  2  0
 27 28  1  0
 28 29  2  0
 29 30  1  0
 30 31  2  0
 31 26  1  0
 28 32  1  0
 32 33  1  0
 33 34  1  0
 34 35  1  0
 35 36  1  0
 36 37  1  0
 37 38  1  0
 38 39  1  0
 39 40  1  0
 40 41  1  0
 41 42  1  0
 34 43  2  0
 42 44  1  0
 44 45  1  0
 45 46  1  0
 46 47  1  0
 47 42  1  0
 47 48  1  0
 45 49  1  0
 46 50  1  0
 44 51  1  0
 48 52  1  0
 51 53  1  0
 53 54  1  0
 54 55  1  0
 54 56  2  0
  1 57  1  0
  2 58  1  0
  3 59  1  0
  4 60  1  0
  6 61  1  0
  7 62  1  0
  7 63  1  0
  8 64  1  0
  8 65  1  0
  9 66  1  0
 10 67  1  0
 11 68  1  0
 13 69  1  0
 13 70  1  0
 13 71  1  0
 15 72  1  0
 15 73  1  0
 16 74  1  0
 16 75  1  0
 17 76  1  0
 17 77  1  0
 18 78  1  0
 18 79  1  0
 19 80  1  0
 19 81  1  0
 20 82  1  0
 20 83  1  0
 21 84  1  0
 23 85  1  0
 25 86  1  0
 25 87  1  0
 27 88  1  0
 29 89  1  0
 30 90  1  0
 31 91  1  0
 32 92  1  0
 32 93  1  0
 33 94  1  0
 35 95  1  0
 36 96  1  0
 36 97  1  0
 37 98  1  0
 37 99  1  0
 38100  1  0
 38101  1  0
 39102  1  0
 39103  1  0
 40104  1  0
 40105  1  0
 41106  1  0
 41107  1  0
 44108  1  0
 45109  1  0
 46110  1  0
 47111  1  0
 48112  1  0
 48113  1  0
 49114  1  0
 50115  1  0
 51116  1  0
 51117  1  0
 52118  1  0
 53119  1  0
 55120  1  0
 55121  1  0
 55122  1  0
M  END
> <Name>
9e Pingitore et al., 2022

> <Clean Energy>
125.712951660156

> <Reference>
Pingitore et al., 2022

> <Forcefield>
MMFF

> <ForcefieldBase>
MMFF

> <ForcefieldFFML>
<?xml version="1.0" encoding="UTF-8"?>
<!DOCTYPE ffml SYSTEM "Ffml.dtd">
<ffml version="1.0">
<forcefield name="9e Pingitore et al., 2022-MMFF" derivedFrom="MMFF" base="MMFF">
<atomTypes>
<atomType
 name="C100"
 element="C"
 mass="12.011"
 annotation=""/>
<atomType
 name="N101"
 element="N"
 mass="14.007"
 annotation=""/>
<atomType
 name="O102"
 element="O"
 mass="16"
 annotation=""/>
<atomType
 name="S103"
 element="S"
 mass="32.066"
 annotation=""/>
<atomType
 name="H104"
 element="H"
 mass="1.008"
 annotation=""/>
</atomTypes>
<parameters>
</parameters>
</forcefield>
</ffml>

$$$$
2-acetamido-2-deoxyD-glucono-1,5-lactone 4-(2-
  SciTegic07212313593D

 51 53  0  0  0  0            999 V2000
   18.0266  -23.5858    0.3956 C   0  0  1  0  0  0
   17.9266  -24.9466   -0.2618 C   0  0  1  0  0  0
   19.1093  -25.8116    0.2197 C   0  0  2  0  0  0
   20.4522  -25.1025    0.0824 C   0  0
   20.5380  -23.6866    0.0692 O   0  0
   19.2983  -22.9597   -0.1957 C   0  0  2  0  0  0
   19.4571  -21.5151    0.3026 C   0  0
   16.6919  -25.5740    0.0863 O   0  0
   16.9110  -22.7855   -0.0021 O   0  0
   19.1505  -27.1241   -0.4060 N   0  0
   21.5318  -25.7889    0.1057 N   0  0
   20.5822  -20.9134   -0.3367 O   0  0
   18.2464  -28.0799   -0.1577 C   0  0
   17.3172  -27.8887    0.6352 O   0  0
   18.3586  -29.4032   -0.8551 C   0  0
   22.7473  -25.1840    0.0521 N   0  0
   23.9434  -25.9588    0.0498 C   0  0
   23.8530  -27.1900    0.0954 O   0  0
   25.2298  -25.3013    0.0027 N   0  0
   26.5077  -25.9841    0.0014 C   0  0
   26.5933  -27.3145    0.0182 C   0  0
   27.9106  -27.9755    0.0194 C   0  0
   29.0150  -27.2493    0.0047 C   0  0
   28.9503  -25.8028   -0.0139 C   0  0
   27.7528  -25.1864   -0.0162 C   0  0
   30.3354  -27.8876    0.0075 C   0  0
   31.4386  -27.1428   -0.0061 C   0  0
   31.3644  -25.6653   -0.0251 C   0  0
   30.1851  -25.0300   -0.0291 C   0  0
   18.0906  -23.6704    1.4804 H   0  0
   17.9806  -24.8302   -1.3442 H   0  0
   18.9558  -25.9810    1.2855 H   0  0
   19.1691  -22.9190   -1.2773 H   0  0
   18.5574  -20.9476    0.0647 H   0  0
   19.6108  -21.5178    1.3817 H   0  0
   16.6402  -25.6918    1.1284 H   0  0
   16.9152  -22.6723   -1.0460 H   0  0
   19.9399  -27.3355   -1.0967 H   0  0
   21.4491  -21.4599   -0.1079 H   0  0
   17.5447  -30.0535   -0.5345 H   0  0
   19.3131  -29.8664   -0.6051 H   0  0
   18.2995  -29.2526   -1.9330 H   0  0
   22.8070  -24.1164    0.0111 H   0  0
   25.2391  -24.2319   -0.0339 H   0  0
   25.6846  -27.9163    0.0312 H   0  0
   27.9742  -29.0636    0.0325 H   0  0
   27.7013  -24.0977   -0.0309 H   0  0
   30.4136  -28.9747    0.0208 H   0  0
   32.4137  -27.6300   -0.0033 H   0  0
   32.2859  -25.0832   -0.0360 H   0  0
   30.1496  -23.9407   -0.0436 H   0  0
  1  2  1  0
  2  3  1  0
  3  4  1  0
  4  5  1  0
  5  6  1  0
  6  1  1  0
  6  7  1  0
  2  8  1  0
  1  9  1  0
  3 10  1  0
  4 11  2  0
  7 12  1  0
 10 13  1  0
 13 14  2  0
 13 15  1  0
 11 16  1  0
 16 17  1  0
 17 18  2  0
 17 19  1  0
 19 20  1  0
 20 21  2  0
 21 22  1  0
 22 23  2  0
 23 24  1  0
 24 25  2  0
 25 20  1  0
 23 26  1  0
 26 27  2  0
 27 28  1  0
 28 29  2  0
 29 24  1  0
  1 30  1  0
  2 31  1  0
  3 32  1  0
  6 33  1  0
  7 34  1  0
  7 35  1  0
  8 36  1  0
  9 37  1  0
 10 38  1  0
 12 39  1  0
 15 40  1  0
 15 41  1  0
 15 42  1  0
 16 43  1  0
 19 44  1  0
 21 45  1  0
 22 46  1  0
 25 47  1  0
 26 48  1  0
 27 49  1  0
 28 50  1  0
 29 51  1  0
M  END
> <Name>
2-acetamido-2-deoxyD-glucono-1,5-lactone 4-(2-
naphthyl)-semicarbazone

> <Clean Energy>
25.7954025268555

> <Reference>
Kiss et al., 2022

> <Forcefield>
MMFF

> <ForcefieldBase>
MMFF

> <ForcefieldFFML>
<?xml version="1.0" encoding="UTF-8"?>
<!DOCTYPE ffml SYSTEM "Ffml.dtd">
<ffml version="1.0">
<forcefield name="2-acetamido-2-deoxyD-glucono-1,5-lactone 4-(2-&#x0A;naphthyl)-semicarbazone-MMFF" derivedFrom="MMFF" base="MMFF">
<atomTypes>
<atomType
 name="C100"
 element="C"
 mass="12.011"
 annotation=""/>
<atomType
 name="O101"
 element="O"
 mass="16"
 annotation=""/>
<atomType
 name="N102"
 element="N"
 mass="14.007"
 annotation=""/>
<atomType
 name="H103"
 element="H"
 mass="1.008"
 annotation=""/>
</atomTypes>
<parameters>
</parameters>
</forcefield>
</ffml>

$$$$
5a Kiss et al., 2022
  SciTegic07212313593D

 47 48  0  0  0  0            999 V2000
   16.4601  -22.7876    0.3837 C   0  0  1  0  0  0
   16.3982  -24.1541   -0.2709 C   0  0  1  0  0  0
   17.5932  -24.9851    0.2320 C   0  0  2  0  0  0
   18.9053  -24.2443    0.1142 C   0  0
   18.9734  -22.8354    0.0955 O   0  0
   17.7273  -22.1359   -0.1913 C   0  0  2  0  0  0
   17.8589  -20.6878    0.3019 C   0  0
   15.1778  -24.8160    0.0587 O   0  0
   15.3334  -22.0125   -0.0328 O   0  0
   17.6817  -26.2953   -0.3852 N   0  0
   19.9957  -24.9169    0.1558 N   0  0
   18.9882  -20.0773   -0.3234 O   0  0
   16.8237  -27.2849   -0.1326 C   0  0
   15.8851  -27.1240    0.6640 O   0  0
   16.9875  -28.6072   -0.8185 C   0  0
   21.1930  -24.3053    0.1170 N   0  0
   22.6094  -25.2742    0.0917 S   0  0
   24.1131  -24.3186    0.0855 C   0  0
   22.5971  -26.1577   -1.1402 O   0  0
   22.6235  -26.1864    1.3023 O   0  0
   25.2846  -24.9559    0.0588 C   0  0
   26.5384  -24.2004    0.0532 C   0  0
   26.5125  -22.8701    0.0748 C   0  0
   25.2243  -22.1628    0.1042 C   0  0
   24.0815  -22.8521    0.1093 C   0  0
   27.8004  -22.0956    0.0692 C   0  0
   16.5100  -22.8673    1.4696 H   0  0
   16.4669  -24.0402   -1.3528 H   0  0
   17.4272  -25.1543    1.2959 H   0  0
   17.6139  -22.1025   -1.2748 H   0  0
   16.9566  -20.1326    0.0458 H   0  0
   17.9947  -20.6826    1.3834 H   0  0
   15.1140  -24.9355    1.1000 H   0  0
   15.3502  -21.9028   -1.0769 H   0  0
   18.4760  -26.4771   -1.0786 H   0  0
   19.8572  -20.6126   -0.0771 H   0  0
   16.2009  -29.2869   -0.4909 H   0  0
   17.9602  -29.0297   -0.5665 H   0  0
   16.9207  -28.4681   -1.8975 H   0  0
   21.2610  -23.2376    0.1021 H   0  0
   25.3084  -26.0455    0.0410 H   0  0
   27.4925  -24.7271    0.0313 H   0  0
   25.2024  -21.0732    0.1219 H   0  0
   23.1268  -22.3266    0.1311 H   0  0
   27.5829  -21.0278    0.0893 H   0  0
   28.3644  -22.3340   -0.8326 H   0  0
   28.3893  -22.3625    0.9467 H   0  0
  1  2  1  0
  2  3  1  0
  3  4  1  0
  4  5  1  0
  5  6  1  0
  6  1  1  0
  6  7  1  0
  2  8  1  0
  1  9  1  0
  3 10  1  0
  4 11  2  0
  7 12  1  0
 10 13  1  0
 13 14  2  0
 13 15  1  0
 11 16  1  0
 16 17  1  0
 17 18  1  0
 17 19  2  0
 17 20  2  0
 18 21  2  0
 21 22  1  0
 22 23  2  0
 23 24  1  0
 24 25  2  0
 25 18  1  0
 23 26  1  0
  1 27  1  0
  2 28  1  0
  3 29  1  0
  6 30  1  0
  7 31  1  0
  7 32  1  0
  8 33  1  0
  9 34  1  0
 10 35  1  0
 12 36  1  0
 15 37  1  0
 15 38  1  0
 15 39  1  0
 16 40  1  0
 21 41  1  0
 22 42  1  0
 24 43  1  0
 25 44  1  0
 26 45  1  0
 26 46  1  0
 26 47  1  0
M  END
> <Name>
5a Kiss et al., 2022

> <Clean Energy>
31.6193695068359

> <Reference>
Kiss et al., 2022

> <Forcefield>
MMFF

> <ForcefieldBase>
MMFF

> <ForcefieldFFML>
<?xml version="1.0" encoding="UTF-8"?>
<!DOCTYPE ffml SYSTEM "Ffml.dtd">
<ffml version="1.0">
<forcefield name="5a Kiss et al., 2022-MMFF" derivedFrom="MMFF" base="MMFF">
<atomTypes>
<atomType
 name="C100"
 element="C"
 mass="12.011"
 annotation=""/>
<atomType
 name="O101"
 element="O"
 mass="16"
 annotation=""/>
<atomType
 name="N102"
 element="N"
 mass="14.007"
 annotation=""/>
<atomType
 name="S103"
 element="S"
 mass="32.066"
 annotation=""/>
<atomType
 name="H104"
 element="H"
 mass="1.008"
 annotation=""/>
</atomTypes>
<parameters>
</parameters>
</forcefield>
</ffml>

$$$$
5b Kiss et al., 2022
  SciTegic07212313593D

 47 48  0  0  0  0            999 V2000
   17.3792  -22.5556    0.3880 C   0  0  1  0  0  0
   17.3189  -23.9209   -0.2686 C   0  0  1  0  0  0
   18.5200  -24.7493    0.2186 C   0  0  2  0  0  0
   19.8387  -24.0029    0.0895 C   0  0
   19.8892  -22.5900    0.0720 O   0  0
   18.6378  -21.8982   -0.2013 C   0  0  2  0  0  0
   18.7663  -20.4494    0.2887 C   0  0
   16.1024  -24.5868    0.0733 O   0  0
   16.2453  -21.7860   -0.0153 O   0  0
   18.6045  -26.0581   -0.4101 N   0  0
   20.9312  -24.6573    0.1202 N   0  0
   19.8845  -19.8338   -0.3516 O   0  0
   17.7412  -27.0470   -0.1492 C   0  0
   16.8182  -26.8898    0.6571 O   0  0
   17.8934  -28.3653   -0.8499 C   0  0
   22.1275  -24.0274    0.0733 N   0  0
   23.5606  -24.9659   -0.0739 S   0  0
   25.0634  -23.9990   -0.0121 C   0  0
   23.5343  -25.7062   -1.3972 O   0  0
   23.6074  -26.0114    1.0238 O   0  0
   26.2375  -24.6279   -0.0758 C   0  0
   27.4901  -23.8702   -0.0461 C   0  0
   27.4631  -22.5428    0.0438 C   0  0
   26.1714  -21.8411    0.1178 C   0  0
   25.0288  -22.5332    0.0914 C   0  0
   28.7556  -21.7689    0.0597 C   0  0
   29.7492  -22.4836   -0.5808 F   0  0
   28.5724  -20.5212   -0.4989 F   0  0
   29.1370  -21.5917    1.3733 F   0  0
   17.4416  -22.6366    1.4732 H   0  0
   17.3754  -23.8043   -1.3509 H   0  0
   18.3651  -24.9251    1.2832 H   0  0
   18.5126  -21.8664   -1.2836 H   0  0
   17.8577  -19.8998    0.0429 H   0  0
   18.9153  -20.4419    1.3684 H   0  0
   16.0494  -24.7069    1.1151 H   0  0
   16.2513  -21.6737   -1.0593 H   0  0
   19.3916  -26.2383   -1.1121 H   0  0
   20.7594  -20.3640   -0.1153 H   0  0
   17.1097  -29.0463   -0.5180 H   0  0
   18.8684  -28.7920   -0.6145 H   0  0
   17.8127  -28.2165   -1.9267 H   0  0
   22.1811  -22.9601    0.1270 H   0  0
   26.2650  -25.7150   -0.1506 H   0  0
   28.4449  -24.3935   -0.0975 H   0  0
   26.1469  -20.7541    0.1943 H   0  0
   24.0731  -22.0120    0.1465 H   0  0
  1  2  1  0
  2  3  1  0
  3  4  1  0
  4  5  1  0
  5  6  1  0
  6  1  1  0
  6  7  1  0
  2  8  1  0
  1  9  1  0
  3 10  1  0
  4 11  2  0
  7 12  1  0
 10 13  1  0
 13 14  2  0
 13 15  1  0
 11 16  1  0
 16 17  1  0
 17 18  1  0
 17 19  2  0
 17 20  2  0
 18 21  2  0
 21 22  1  0
 22 23  2  0
 23 24  1  0
 24 25  2  0
 25 18  1  0
 23 26  1  0
 26 27  1  0
 26 28  1  0
 26 29  1  0
  1 30  1  0
  2 31  1  0
  3 32  1  0
  6 33  1  0
  7 34  1  0
  7 35  1  0
  8 36  1  0
  9 37  1  0
 10 38  1  0
 12 39  1  0
 15 40  1  0
 15 41  1  0
 15 42  1  0
 16 43  1  0
 21 44  1  0
 22 45  1  0
 24 46  1  0
 25 47  1  0
M  END
> <Name>
5b Kiss et al., 2022

> <Clean Energy>
43.9028396606445

> <Reference>
Kiss et al., 2022

> <Forcefield>
MMFF

> <ForcefieldBase>
MMFF

> <ForcefieldFFML>
<?xml version="1.0" encoding="UTF-8"?>
<!DOCTYPE ffml SYSTEM "Ffml.dtd">
<ffml version="1.0">
<forcefield name="5b Kiss et al., 2022-MMFF" derivedFrom="MMFF" base="MMFF">
<atomTypes>
<atomType
 name="C100"
 element="C"
 mass="12.011"
 annotation=""/>
<atomType
 name="O101"
 element="O"
 mass="16"
 annotation=""/>
<atomType
 name="N102"
 element="N"
 mass="14.007"
 annotation=""/>
<atomType
 name="S103"
 element="S"
 mass="32.066"
 annotation=""/>
<atomType
 name="F104"
 element="F"
 mass="18.998"
 annotation=""/>
<atomType
 name="H105"
 element="H"
 mass="1.008"
 annotation=""/>
</atomTypes>
<parameters>
</parameters>
</forcefield>
</ffml>

$$$$
5c Kiss et al., 2022
  SciTegic07212313593D

 44 45  0  0  0  0            999 V2000
   16.4622  -22.7875    0.3843 C   0  0  1  0  0  0
   16.4036  -24.1548   -0.2702 C   0  0  1  0  0  0
   17.5953  -24.9833    0.2339 C   0  0  2  0  0  0
   18.9146  -24.2459    0.1143 C   0  0
   18.9753  -22.8332    0.0950 O   0  0
   17.7304  -22.1351   -0.1913 C   0  0  2  0  0  0
   17.8598  -20.6868    0.3012 C   0  0
   15.1820  -24.8167    0.0609 O   0  0
   15.3360  -22.0137   -0.0321 O   0  0
   17.6894  -26.2953   -0.3848 N   0  0
   19.9983  -24.9116    0.1552 N   0  0
   18.9882  -20.0752   -0.3248 O   0  0
   16.8251  -27.2841   -0.1312 C   0  0
   15.8889  -27.1241    0.6589 O   0  0
   16.9940  -28.6069   -0.8195 C   0  0
   21.1987  -24.3016    0.1158 N   0  0
   22.6161  -25.2681    0.0883 S   0  0
   24.1198  -24.3126    0.0840 C   0  0
   22.6043  -26.1496   -1.1457 O   0  0
   22.6310  -26.1839    1.2970 O   0  0
   25.2912  -24.9488    0.0586 C   0  0
   26.5450  -24.1930    0.0544 C   0  0
   26.5182  -22.8624    0.0761 C   0  0
   25.2297  -22.1561    0.1040 C   0  0
   24.0870  -22.8458    0.1079 C   0  0
   27.6684  -22.1695    0.0723 F   0  0
   16.5122  -22.8669    1.4703 H   0  0
   16.4727  -24.0418   -1.3521 H   0  0
   17.4287  -25.1523    1.2978 H   0  0
   17.6170  -22.1021   -1.2749 H   0  0
   16.9566  -20.1330    0.0448 H   0  0
   17.9957  -20.6807    1.3827 H   0  0
   15.1185  -24.9347    1.1023 H   0  0
   15.3532  -21.9035   -1.0762 H   0  0
   18.4866  -26.4785   -1.0747 H   0  0
   19.8580  -20.6093   -0.0783 H   0  0
   16.2071  -29.2883   -0.4964 H   0  0
   17.9663  -29.0284   -0.5642 H   0  0
   16.9315  -28.4662   -1.8986 H   0  0
   21.2670  -23.2339    0.1020 H   0  0
   25.3155  -26.0384    0.0408 H   0  0
   27.4993  -24.7193    0.0336 H   0  0
   25.2072  -21.0665    0.1217 H   0  0
   23.1320  -22.3208    0.1286 H   0  0
  1  2  1  0
  2  3  1  0
  3  4  1  0
  4  5  1  0
  5  6  1  0
  6  1  1  0
  6  7  1  0
  2  8  1  0
  1  9  1  0
  3 10  1  0
  4 11  2  0
  7 12  1  0
 10 13  1  0
 13 14  2  0
 13 15  1  0
 11 16  1  0
 16 17  1  0
 17 18  1  0
 17 19  2  0
 17 20  2  0
 18 21  2  0
 21 22  1  0
 22 23  2  0
 23 24  1  0
 24 25  2  0
 25 18  1  0
 23 26  1  0
  1 27  1  0
  2 28  1  0
  3 29  1  0
  6 30  1  0
  7 31  1  0
  7 32  1  0
  8 33  1  0
  9 34  1  0
 10 35  1  0
 12 36  1  0
 15 37  1  0
 15 38  1  0
 15 39  1  0
 16 40  1  0
 21 41  1  0
 22 42  1  0
 24 43  1  0
 25 44  1  0
M  END
> <Name>
5c Kiss et al., 2022

> <Clean Energy>
31.7138061523438

> <Reference>
Kiss et al., 2022

> <Forcefield>
MMFF

> <ForcefieldBase>
MMFF

> <ForcefieldFFML>
<?xml version="1.0" encoding="UTF-8"?>
<!DOCTYPE ffml SYSTEM "Ffml.dtd">
<ffml version="1.0">
<forcefield name="5c Kiss et al., 2022-MMFF" derivedFrom="MMFF" base="MMFF">
<atomTypes>
<atomType
 name="C100"
 element="C"
 mass="12.011"
 annotation=""/>
<atomType
 name="O101"
 element="O"
 mass="16"
 annotation=""/>
<atomType
 name="N102"
 element="N"
 mass="14.007"
 annotation=""/>
<atomType
 name="S103"
 element="S"
 mass="32.066"
 annotation=""/>
<atomType
 name="F104"
 element="F"
 mass="18.998"
 annotation=""/>
<atomType
 name="H105"
 element="H"
 mass="1.008"
 annotation=""/>
</atomTypes>
<parameters>
</parameters>
</forcefield>
</ffml>

$$$$
5d Kiss et al., 2022
  SciTegic07212313593D

 44 45  0  0  0  0            999 V2000
   16.4550  -22.7877    0.3830 C   0  0  1  0  0  0
   16.3924  -24.1542   -0.2718 C   0  0  1  0  0  0
   17.5855  -24.9861    0.2320 C   0  0  2  0  0  0
   18.8994  -24.2475    0.1147 C   0  0
   18.9682  -22.8382    0.0961 O   0  0
   17.7235  -22.1374   -0.1912 C   0  0  2  0  0  0
   17.8565  -20.6895    0.3021 C   0  0
   15.1710  -24.8150    0.0573 O   0  0
   15.3296  -22.0114   -0.0339 O   0  0
   17.6739  -26.2965   -0.3855 N   0  0
   19.9877  -24.9204    0.1570 N   0  0
   18.9869  -20.0803   -0.3226 O   0  0
   16.8147  -27.2854   -0.1319 C   0  0
   15.8773  -27.1240    0.6644 O   0  0
   16.9782  -28.6080   -0.8181 C   0  0
   21.1859  -24.3107    0.1189 N   0  0
   22.6009  -25.2809    0.0967 S   0  0
   24.1052  -24.3270    0.0879 C   0  0
   22.5878  -26.1687   -1.1322 O   0  0
   22.6138  -26.1891    1.3105 O   0  0
   25.2758  -24.9654    0.0593 C   0  0
   26.5303  -24.2115    0.0516 C   0  0
   26.5060  -22.8810    0.0732 C   0  0
   25.2186  -22.1722    0.1046 C   0  0
   24.0750  -22.8603    0.1115 C   0  0
   27.9901  -21.9921    0.0643 Cl  0  0
   16.5042  -22.8676    1.4690 H   0  0
   16.4620  -24.0404   -1.3536 H   0  0
   17.4186  -25.1552    1.2958 H   0  0
   17.6108  -22.1037   -1.2748 H   0  0
   16.9550  -20.1332    0.0454 H   0  0
   17.9917  -20.6844    1.3837 H   0  0
   15.1066  -24.9344    1.0985 H   0  0
   15.3471  -21.9014   -1.0780 H   0  0
   18.4681  -26.4788   -1.0791 H   0  0
   19.8552  -20.6167   -0.0758 H   0  0
   16.1915  -29.2876   -0.4905 H   0  0
   17.9509  -29.0308   -0.5664 H   0  0
   16.9113  -28.4688   -1.8972 H   0  0
   21.2552  -23.2431    0.1028 H   0  0
   25.2984  -26.0550    0.0416 H   0  0
   27.4837  -24.7393    0.0282 H   0  0
   25.1980  -21.0825    0.1222 H   0  0
   23.1208  -22.3338    0.1348 H   0  0
  1  2  1  0
  2  3  1  0
  3  4  1  0
  4  5  1  0
  5  6  1  0
  6  1  1  0
  6  7  1  0
  2  8  1  0
  1  9  1  0
  3 10  1  0
  4 11  2  0
  7 12  1  0
 10 13  1  0
 13 14  2  0
 13 15  1  0
 11 16  1  0
 16 17  1  0
 17 18  1  0
 17 19  2  0
 17 20  2  0
 18 21  2  0
 21 22  1  0
 22 23  2  0
 23 24  1  0
 24 25  2  0
 25 18  1  0
 23 26  1  0
  1 27  1  0
  2 28  1  0
  3 29  1  0
  6 30  1  0
  7 31  1  0
  7 32  1  0
  8 33  1  0
  9 34  1  0
 10 35  1  0
 12 36  1  0
 15 37  1  0
 15 38  1  0
 15 39  1  0
 16 40  1  0
 21 41  1  0
 22 42  1  0
 24 43  1  0
 25 44  1  0
M  END
> <Name>
5d Kiss et al., 2022

> <Clean Energy>
31.7076454162598

> <Reference>
Kiss et al., 2022

> <Forcefield>
MMFF

> <ForcefieldBase>
MMFF

> <ForcefieldFFML>
<?xml version="1.0" encoding="UTF-8"?>
<!DOCTYPE ffml SYSTEM "Ffml.dtd">
<ffml version="1.0">
<forcefield name="5d Kiss et al., 2022-MMFF" derivedFrom="MMFF" base="MMFF">
<atomTypes>
<atomType
 name="C100"
 element="C"
 mass="12.011"
 annotation=""/>
<atomType
 name="O101"
 element="O"
 mass="16"
 annotation=""/>
<atomType
 name="N102"
 element="N"
 mass="14.007"
 annotation=""/>
<atomType
 name="S103"
 element="S"
 mass="32.066"
 annotation=""/>
<atomType
 name="Cl104"
 element="Cl"
 mass="35.453"
 annotation=""/>
<atomType
 name="H105"
 element="H"
 mass="1.008"
 annotation=""/>
</atomTypes>
<parameters>
</parameters>
</forcefield>
</ffml>

$$$$
5e Kiss et al., 2022
  SciTegic07212313593D

 50 52  0  0  0  0            999 V2000
   17.3784  -22.8112    0.3879 C   0  0  1  0  0  0
   17.2954  -24.1762   -0.2637 C   0  0  1  0  0  0
   18.4962  -25.0166    0.2130 C   0  0  2  0  0  0
   19.8243  -24.2821    0.0602 C   0  0
   19.8868  -22.8678    0.0424 O   0  0
   18.6349  -22.1647   -0.2140 C   0  0  2  0  0  0
   18.7750  -20.7175    0.2803 C   0  0
   16.0744  -24.8220    0.0974 O   0  0
   16.2469  -22.0311   -0.0032 O   0  0
   18.5601  -26.3348   -0.4043 N   0  0
   20.9132  -24.9495    0.0703 N   0  0
   19.8875  -20.1013   -0.3673 O   0  0
   17.6682  -27.3041   -0.1596 C   0  0
   16.7276  -27.1247    0.6224 O   0  0
   17.8096  -28.6299   -0.8475 C   0  0
   22.1238  -24.3367    0.0003 N   0  0
   23.5492  -25.3022   -0.1226 S   0  0
   25.0744  -24.3649   -0.0425 C   0  0
   23.5289  -26.0581   -1.4373 O   0  0
   23.5624  -26.3356    0.9870 O   0  0
   26.2384  -25.0175   -0.0721 C   0  0
   27.5071  -24.2825   -0.0101 C   0  0
   27.5008  -22.9533    0.0700 C   0  0
   26.2212  -22.2290    0.1035 C   0  0
   25.0669  -22.8991    0.0483 C   0  0
   28.7819  -25.0100   -0.0441 C   0  0
   29.9336  -24.3418    0.0105 C   0  0
   29.9279  -22.8787    0.1010 C   0  0
   28.7710  -22.2173    0.1312 C   0  0
   17.4518  -22.8911    1.4725 H   0  0
   17.3392  -24.0637   -1.3470 H   0  0
   18.3545  -25.1813    1.2811 H   0  0
   18.4969  -22.1282   -1.2947 H   0  0
   17.8657  -20.1638    0.0464 H   0  0
   18.9350  -20.7155    1.3585 H   0  0
   16.0336  -24.9366    1.1404 H   0  0
   16.2406  -21.9218   -1.0476 H   0  0
   19.3586  -26.5387   -1.0866 H   0  0
   20.7635  -20.6349   -0.1424 H   0  0
   17.0029  -29.2915   -0.5318 H   0  0
   18.7687  -29.0760   -0.5840 H   0  0
   17.7601  -28.4869   -1.9269 H   0  0
   22.1926  -23.2691    0.0211 H   0  0
   26.2467  -26.1052   -0.1429 H   0  0
   26.2147  -21.1413    0.1735 H   0  0
   24.1206  -22.3586    0.0706 H   0  0
   28.7864  -26.0977   -0.1142 H   0  0
   30.8795  -24.8830   -0.0121 H   0  0
   30.8697  -22.3317    0.1437 H   0  0
   28.7672  -21.1295    0.2013 H   0  0
  1  2  1  0
  2  3  1  0
  3  4  1  0
  4  5  1  0
  5  6  1  0
  6  1  1  0
  6  7  1  0
  2  8  1  0
  1  9  1  0
  3 10  1  0
  4 11  2  0
  7 12  1  0
 10 13  1  0
 13 14  2  0
 13 15  1  0
 11 16  1  0
 16 17  1  0
 17 18  1  0
 17 19  2  0
 17 20  2  0
 18 21  2  0
 21 22  1  0
 22 23  2  0
 23 24  1  0
 24 25  2  0
 25 18  1  0
 22 26  1  0
 26 27  2  0
 27 28  1  0
 28 29  2  0
 29 23  1  0
  1 30  1  0
  2 31  1  0
  3 32  1  0
  6 33  1  0
  7 34  1  0
  7 35  1  0
  8 36  1  0
  9 37  1  0
 10 38  1  0
 12 39  1  0
 15 40  1  0
 15 41  1  0
 15 42  1  0
 16 43  1  0
 21 44  1  0
 24 45  1  0
 25 46  1  0
 26 47  1  0
 27 48  1  0
 28 49  1  0
 29 50  1  0
M  END
> <Name>
5e Kiss et al., 2022

> <Clean Energy>
31.4477062225342

> <Reference>
Kiss et al., 2022

> <Forcefield>
MMFF

> <ForcefieldBase>
MMFF

> <ForcefieldFFML>
<?xml version="1.0" encoding="UTF-8"?>
<!DOCTYPE ffml SYSTEM "Ffml.dtd">
<ffml version="1.0">
<forcefield name="5e Kiss et al., 2022-MMFF" derivedFrom="MMFF" base="MMFF">
<atomTypes>
<atomType
 name="C100"
 element="C"
 mass="12.011"
 annotation=""/>
<atomType
 name="O101"
 element="O"
 mass="16"
 annotation=""/>
<atomType
 name="N102"
 element="N"
 mass="14.007"
 annotation=""/>
<atomType
 name="S103"
 element="S"
 mass="32.066"
 annotation=""/>
<atomType
 name="H104"
 element="H"
 mass="1.008"
 annotation=""/>
</atomTypes>
<parameters>
</parameters>
</forcefield>
</ffml>

$$$$
5f Kiss et al., 2022
  SciTegic07212313593D

 50 52  0  0  0  0            999 V2000
   16.6610  -22.4295    0.3850 C   0  0  1  0  0  0
   16.5800  -23.7956   -0.2691 C   0  0  1  0  0  0
   17.7807  -24.6322    0.2080 C   0  0  2  0  0  0
   19.1007  -23.8953    0.0577 C   0  0
   19.1646  -22.4836    0.0407 O   0  0
   17.9181  -21.7809   -0.2157 C   0  0  2  0  0  0
   18.0646  -20.3350    0.2799 C   0  0
   15.3615  -24.4472    0.0899 O   0  0
   15.5295  -21.6496   -0.0049 O   0  0
   17.8541  -25.9486   -0.4092 N   0  0
   20.1897  -24.5556    0.0682 N   0  0
   19.1829  -19.7254   -0.3659 O   0  0
   16.9739  -26.9257   -0.1587 C   0  0
   16.0363  -26.7536    0.6283 O   0  0
   17.1256  -28.2513   -0.8451 C   0  0
   21.3769  -23.9216   -0.0003 N   0  0
   22.8203  -24.8431   -0.1256 S   0  0
   24.3444  -23.8944   -0.0133 C   0  0
   22.8230  -25.5723   -1.4554 O   0  0
   22.8382  -25.9021    0.9595 O   0  0
   25.4931  -24.5690    0.0427 C   0  0
   26.7711  -23.8644    0.1309 C   0  0
   26.7981  -22.5354    0.1568 C   0  0
   25.5506  -21.7754    0.0947 C   0  0
   24.3759  -22.4093    0.0156 C   0  0
   25.5997  -20.3125    0.1243 C   0  0
   24.4731  -19.6069    0.0688 C   0  0
   23.1852  -20.2960   -0.0198 C   0  0
   23.1400  -21.6270   -0.0465 C   0  0
   16.7342  -22.5108    1.4695 H   0  0
   16.6249  -23.6821   -1.3523 H   0  0
   17.6381  -24.7981    1.2758 H   0  0
   17.7811  -21.7432   -1.2964 H   0  0
   17.1590  -19.7761    0.0441 H   0  0
   18.2222  -20.3342    1.3584 H   0  0
   15.3208  -24.5645    1.1325 H   0  0
   15.5234  -21.5385   -1.0490 H   0  0
   18.6503  -26.1448   -1.0966 H   0  0
   20.0551  -20.2643   -0.1392 H   0  0
   16.3273  -28.9205   -0.5244 H   0  0
   18.0905  -28.6870   -0.5856 H   0  0
   17.0695  -28.1106   -1.9245 H   0  0
   21.4197  -22.8528    0.0232 H   0  0
   25.4792  -25.6587    0.0225 H   0  0
   27.7024  -24.4290    0.1755 H   0  0
   27.7517  -22.0117    0.2245 H   0  0
   26.5599  -19.8011    0.1918 H   0  0
   24.5094  -18.5177    0.0894 H   0  0
   22.2614  -19.7192   -0.0641 H   0  0
   22.1785  -22.1360   -0.1149 H   0  0
  1  2  1  0
  2  3  1  0
  3  4  1  0
  4  5  1  0
  5  6  1  0
  6  1  1  0
  6  7  1  0
  2  8  1  0
  1  9  1  0
  3 10  1  0
  4 11  2  0
  7 12  1  0
 10 13  1  0
 13 14  2  0
 13 15  1  0
 11 16  1  0
 16 17  1  0
 17 18  1  0
 17 19  2  0
 17 20  2  0
 18 21  2  0
 21 22  1  0
 22 23  2  0
 23 24  1  0
 24 25  2  0
 25 18  1  0
 24 26  1  0
 26 27  2  0
 27 28  1  0
 28 29  2  0
 29 25  1  0
  1 30  1  0
  2 31  1  0
  3 32  1  0
  6 33  1  0
  7 34  1  0
  7 35  1  0
  8 36  1  0
  9 37  1  0
 10 38  1  0
 12 39  1  0
 15 40  1  0
 15 41  1  0
 15 42  1  0
 16 43  1  0
 21 44  1  0
 22 45  1  0
 23 46  1  0
 26 47  1  0
 27 48  1  0
 28 49  1  0
 29 50  1  0
M  END
> <Name>
5f Kiss et al., 2022

> <Clean Energy>
31.2665576934814

> <Reference>
Kiss et al., 2022

> <Forcefield>
MMFF

> <ForcefieldBase>
MMFF

> <ForcefieldFFML>
<?xml version="1.0" encoding="UTF-8"?>
<!DOCTYPE ffml SYSTEM "Ffml.dtd">
<ffml version="1.0">
<forcefield name="5f Kiss et al., 2022-MMFF" derivedFrom="MMFF" base="MMFF">
<atomTypes>
<atomType
 name="C100"
 element="C"
 mass="12.011"
 annotation=""/>
<atomType
 name="O101"
 element="O"
 mass="16"
 annotation=""/>
<atomType
 name="N102"
 element="N"
 mass="14.007"
 annotation=""/>
<atomType
 name="S103"
 element="S"
 mass="32.066"
 annotation=""/>
<atomType
 name="H104"
 element="H"
 mass="1.008"
 annotation=""/>
</atomTypes>
<parameters>
</parameters>
</forcefield>
</ffml>

$$$$
4a Kiss et al., 2022
  SciTegic07212313593D

 62 63  0  0  0  0            999 V2000
   15.2775  -21.7214    0.3355 C   0  0  1  0  0  0
   15.2183  -23.1652   -0.2513 C   0  0  1  0  0  0
   16.4361  -23.9515    0.2797 C   0  0  2  0  0  0
   17.7570  -23.2352    0.1071 C   0  0
   17.8400  -21.8291    0.0117 O   0  0
   16.6121  -21.1100   -0.3023 C   0  0  2  0  0  0
   16.8481  -19.6434    0.0966 C   0  0
   14.0277  -23.9040    0.1800 O   0  0
   14.0679  -21.0062   -0.1296 O   0  0
   16.5460  -25.3007   -0.2822 N   0  0
   18.8293  -23.9191    0.1714 N   0  0
   17.9588  -19.0450   -0.5375 O   0  0
   15.6865  -26.3006   -0.0406 C   0  0
   14.7129  -26.1482    0.7026 O   0  0
   15.9118  -27.6342   -0.6928 C   0  0
   20.0455  -23.3443    0.0875 N   0  0
   21.4403  -24.3492    0.0749 S   0  0
   22.9655  -23.4285    0.0805 C   0  0
   21.4194  -25.2336   -1.1571 O   0  0
   21.4242  -25.2627    1.2855 O   0  0
   24.1235  -24.0894    0.0808 C   0  0
   25.3931  -23.3592    0.0853 C   0  0
   25.3934  -22.0281    0.0890 C   0  0
   24.1199  -21.2954    0.0885 C   0  0
   22.9634  -21.9615    0.0845 C   0  0
   26.6963  -21.2790    0.0937 C   0  0
   17.9384  -17.7000   -0.1628 C   0  0
   18.9841  -16.7536   -0.6658 C   0  0
   17.0399  -17.2846    0.5812 O   0  0
   13.7015  -19.7789    0.4713 C   0  0
   12.5002  -19.0448   -0.0487 C   0  0
   14.3253  -19.3204    1.4339 O   0  0
   12.7836  -23.4958   -0.3373 C   0  0
   11.5367  -24.1839    0.1350 C   0  0
   12.6985  -22.6081   -1.1917 O   0  0
   15.3320  -21.7392    1.4240 H   0  0
   15.2524  -23.1229   -1.3399 H   0  0
   16.2852  -24.0722    1.3525 H   0  0
   16.4922  -21.1342   -1.3855 H   0  0
   15.9572  -19.0709   -0.1617 H   0  0
   17.0066  -19.6032    1.1742 H   0  0
   17.3719  -25.5020   -0.9320 H   0  0
   15.1254  -28.3252   -0.3892 H   0  0
   16.8803  -28.0298   -0.3869 H   0  0
   15.8934  -27.5170   -1.7763 H   0  0
   20.1413  -22.2802    0.0297 H   0  0
   24.1253  -25.1793    0.0777 H   0  0
   26.3365  -23.9052    0.0855 H   0  0
   24.1196  -20.2054    0.0914 H   0  0
   22.0193  -21.4166    0.0841 H   0  0
   26.4997  -20.2070    0.0963 H   0  0
   27.2696  -21.5406   -0.7957 H   0  0
   27.2660  -21.5455    0.9840 H   0  0
   18.7970  -15.7578   -0.2641 H   0  0
   18.9491  -16.7180   -1.7547 H   0  0
   19.9684  -17.0951   -0.3453 H   0  0
   12.3603  -18.1263    0.5212 H   0  0
   11.6163  -19.6741    0.0547 H   0  0
   12.6504  -18.8000   -1.1002 H   0  0
   10.6701  -23.7482   -0.3621 H   0  0
   11.4378  -24.0581    1.2132 H   0  0
   11.5951  -25.2462   -0.1025 H   0  0
  1  2  1  0
  2  3  1  0
  3  4  1  0
  4  5  1  0
  5  6  1  0
  6  1  1  0
  6  7  1  0
  2  8  1  0
  1  9  1  0
  3 10  1  0
  4 11  2  0
  7 12  1  0
 10 13  1  0
 13 14  2  0
 13 15  1  0
 11 16  1  0
 16 17  1  0
 17 18  1  0
 17 19  2  0
 17 20  2  0
 18 21  2  0
 21 22  1  0
 22 23  2  0
 23 24  1  0
 24 25  2  0
 25 18  1  0
 23 26  1  0
 12 27  1  0
 27 28  1  0
 27 29  2  0
  9 30  1  0
 30 31  1  0
 30 32  2  0
  8 33  1  0
 33 34  1  0
 33 35  2  0
  1 36  1  0
  2 37  1  0
  3 38  1  0
  6 39  1  0
  7 40  1  0
  7 41  1  0
 10 42  1  0
 15 43  1  0
 15 44  1  0
 15 45  1  0
 16 46  1  0
 21 47  1  0
 22 48  1  0
 24 49  1  0
 25 50  1  0
 26 51  1  0
 26 52  1  0
 26 53  1  0
 28 54  1  0
 28 55  1  0
 28 56  1  0
 31 57  1  0
 31 58  1  0
 31 59  1  0
 34 60  1  0
 34 61  1  0
 34 62  1  0
M  END
> <Name>
4a Kiss et al., 2022

> <Clean Energy>
41.5764236450195

> <Reference>
Kiss et al., 2022

> <Forcefield>
MMFF

> <ForcefieldBase>
MMFF

> <ForcefieldFFML>
<?xml version="1.0" encoding="UTF-8"?>
<!DOCTYPE ffml SYSTEM "Ffml.dtd">
<ffml version="1.0">
<forcefield name="4a Kiss et al., 2022-MMFF" derivedFrom="MMFF" base="MMFF">
<atomTypes>
<atomType
 name="C100"
 element="C"
 mass="12.011"
 annotation=""/>
<atomType
 name="O101"
 element="O"
 mass="16"
 annotation=""/>
<atomType
 name="N102"
 element="N"
 mass="14.007"
 annotation=""/>
<atomType
 name="S103"
 element="S"
 mass="32.066"
 annotation=""/>
<atomType
 name="H104"
 element="H"
 mass="1.008"
 annotation=""/>
</atomTypes>
<parameters>
</parameters>
</forcefield>
</ffml>

$$$$
4b Kiss et al., 2022
  SciTegic07212313593D

 62 63  0  0  0  0            999 V2000
   16.0448  -21.6011    0.3440 C   0  0  1  0  0  0
   16.0030  -23.0451   -0.2421 C   0  0  1  0  0  0
   17.2308  -23.8208    0.2929 C   0  0  2  0  0  0
   18.5501  -23.0838    0.1191 C   0  0
   18.6108  -21.6776    0.0273 O   0  0
   17.3739  -20.9753   -0.2891 C   0  0  2  0  0  0
   17.5951  -19.5036    0.1047 C   0  0
   14.8142  -23.7920    0.1848 O   0  0
   14.8309  -20.8994   -0.1272 O   0  0
   17.3492  -25.1712   -0.2683 N   0  0
   19.6383  -23.7474    0.1739 N   0  0
   18.7125  -18.9056   -0.5358 O   0  0
   16.4895  -26.1742   -0.0319 C   0  0
   15.5109  -26.0247    0.7055 O   0  0
   16.7202  -27.5072   -0.6832 C   0  0
   20.8527  -23.1451    0.0838 N   0  0
   22.2629  -24.1296   -0.0516 S   0  0
   23.8073  -23.2211   -0.0172 C   0  0
   22.2832  -25.1484    1.0718 O   0  0
   22.2045  -24.9055   -1.3535 O   0  0
   24.9523  -23.9035   -0.0587 C   0  0
   26.2390  -23.2053   -0.0357 C   0  0
   26.2748  -21.8768    0.0266 C   0  0
   25.0152  -21.1134    0.0722 C   0  0
   23.8405  -21.7518    0.0514 C   0  0
   27.6055  -21.1673    0.0498 C   0  0
   28.5686  -21.9765    0.6210 F   0  0
   27.4968  -19.9539    0.6961 F   0  0
   27.9837  -20.9239   -1.2548 F   0  0
   18.7406  -17.5265   -0.2197 C   0  0
   19.6376  -16.8122   -0.6784 O   0  0
   17.6760  -16.9015    0.6631 C   0  0
   14.4476  -19.6810    0.4775 C   0  0
   13.2429  -18.9558   -0.0475 C   0  0
   15.0590  -19.2236    1.4483 O   0  0
   13.5690  -23.3939   -0.3430 C   0  0
   12.3227  -24.0876    0.1237 C   0  0
   13.4836  -22.5104   -1.2018 O   0  0
   16.0949  -21.6173    1.4327 H   0  0
   16.0400  -23.0022   -1.3307 H   0  0
   17.0800  -23.9412    1.3657 H   0  0
   17.2572  -21.0034   -1.3725 H   0  0
   16.7022  -18.9379   -0.1611 H   0  0
   17.7492  -19.4549    1.1827 H   0  0
   18.1804  -25.3705   -0.9120 H   0  0
   15.9332  -28.1994   -0.3839 H   0  0
   17.6877  -27.9015   -0.3723 H   0  0
   16.7073  -27.3898   -1.7668 H   0  0
   20.9331  -22.0782    0.0967 H   0  0
   24.9300  -24.9920   -0.1104 H   0  0
   27.1682  -23.7743   -0.0696 H   0  0
   25.0411  -20.0249    0.1230 H   0  0
   22.9099  -21.1852    0.0853 H   0  0
   17.8803  -15.8374    0.7817 H   0  0
   17.6847  -17.3837    1.6406 H   0  0
   16.6972  -17.0338    0.2019 H   0  0
   13.0891  -18.0424    0.5270 H   0  0
   12.3646  -19.5948    0.0450 H   0  0
   13.3989  -18.7029   -1.0963 H   0  0
   11.4570  -23.6592   -0.3813 H   0  0
   12.2156  -23.9576    1.2007 H   0  0
   12.3892  -25.1505   -0.1088 H   0  0
  1  2  1  0
  2  3  1  0
  3  4  1  0
  4  5  1  0
  5  6  1  0
  6  1  1  0
  6  7  1  0
  2  8  1  0
  1  9  1  0
  3 10  1  0
  4 11  2  0
  7 12  1  0
 10 13  1  0
 13 14  2  0
 13 15  1  0
 11 16  1  0
 16 17  1  0
 17 18  1  0
 17 19  2  0
 17 20  2  0
 18 21  2  0
 21 22  1  0
 22 23  2  0
 23 24  1  0
 24 25  2  0
 25 18  1  0
 23 26  1  0
 26 27  1  0
 26 28  1  0
 26 29  1  0
 12 30  1  0
 30 31  2  0
 30 32  1  0
  9 33  1  0
 33 34  1  0
 33 35  2  0
  8 36  1  0
 36 37  1  0
 36 38  2  0
  1 39  1  0
  2 40  1  0
  3 41  1  0
  6 42  1  0
  7 43  1  0
  7 44  1  0
 10 45  1  0
 15 46  1  0
 15 47  1  0
 15 48  1  0
 16 49  1  0
 21 50  1  0
 22 51  1  0
 24 52  1  0
 25 53  1  0
 32 54  1  0
 32 55  1  0
 32 56  1  0
 34 57  1  0
 34 58  1  0
 34 59  1  0
 37 60  1  0
 37 61  1  0
 37 62  1  0
M  END
> <Name>
4b Kiss et al., 2022

> <Clean Energy>
54.5067749023438

> <Reference>
Kiss et al., 2022

> <Forcefield>
MMFF

> <ForcefieldBase>
MMFF

> <ForcefieldFFML>
<?xml version="1.0" encoding="UTF-8"?>
<!DOCTYPE ffml SYSTEM "Ffml.dtd">
<ffml version="1.0">
<forcefield name="4b Kiss et al., 2022-MMFF" derivedFrom="MMFF" base="MMFF">
<atomTypes>
<atomType
 name="C100"
 element="C"
 mass="12.011"
 annotation=""/>
<atomType
 name="O101"
 element="O"
 mass="16"
 annotation=""/>
<atomType
 name="N102"
 element="N"
 mass="14.007"
 annotation=""/>
<atomType
 name="S103"
 element="S"
 mass="32.066"
 annotation=""/>
<atomType
 name="F104"
 element="F"
 mass="18.998"
 annotation=""/>
<atomType
 name="H105"
 element="H"
 mass="1.008"
 annotation=""/>
</atomTypes>
<parameters>
</parameters>
</forcefield>
</ffml>

$$$$
4c Kiss et al., 2022
  SciTegic07212313593D

 59 60  0  0  0  0            999 V2000
   15.4879  -21.7036    0.8023 C   0  0  1  0  0  0
   15.1673  -23.0253   -0.0225 C   0  0  1  0  0  0
   16.4300  -23.9307    0.1860 C   0  0  2  0  0  0
   17.7393  -23.2365   -0.0777 C   0  0
   17.8835  -21.8515   -0.0498 O   0  0
   16.6677  -21.0516    0.0047 C   0  0  2  0  0  0
   17.0561  -19.6884    0.5776 C   0  0
   14.0289  -23.7944    0.5013 O   0  0
   14.3757  -20.7142    0.9697 O   0  0
   16.3977  -25.2077   -0.5210 N   0  0
   18.8043  -23.9591   -0.1633 N   0  0
   18.0173  -19.0808   -0.2901 O   0  0
   15.5770  -26.2173   -0.2140 C   0  0
   14.7541  -26.1133    0.7095 O   0  0
   15.6539  -27.5023   -0.9838 C   0  0
   20.0261  -23.3916   -0.2883 N   0  0
   21.4303  -24.3733   -0.0680 S   0  0
   22.9521  -23.4367   -0.0013 C   0  0
   21.5348  -25.3782   -1.1974 O   0  0
   21.3018  -25.1581    1.2231 O   0  0
   24.1147  -24.0922    0.0282 C   0  0
   25.3810  -23.3562    0.0805 C   0  0
   25.3760  -22.0259    0.0993 C   0  0
   24.0984  -21.2984    0.0695 C   0  0
   22.9449  -21.9692    0.0218 C   0  0
   26.5372  -21.3511    0.1447 F   0  0
   18.0141  -17.6840   -0.1261 C   0  0
   18.7775  -16.9887   -0.8049 O   0  0
   17.0590  -17.0144    0.8365 C   0  0
   13.7925  -19.9667   -0.0750 C   0  0
   14.1485  -20.0761   -1.2518 O   0  0
   12.7187  -18.9739    0.2924 C   0  0
   12.6922  -23.5222    0.0325 C   0  0
   11.7584  -24.1422    0.5524 O   0  0
   12.3736  -22.6577   -1.1598 C   0  0
   15.8511  -21.9891    1.7895 H   0  0
   15.0258  -22.7968   -1.0788 H   0  0
   16.4393  -24.1822    1.2465 H   0  0
   16.3283  -20.8955   -1.0193 H   0  0
   16.1720  -19.0545    0.6459 H   0  0
   17.4885  -19.8178    1.5697 H   0  0
   17.0751  -25.3444   -1.3380 H   0  0
   14.9151  -28.2036   -0.5960 H   0  0
   16.6508  -27.9304   -0.8785 H   0  0
   15.4518  -27.3081   -2.0372 H   0  0
   20.1211  -22.3513   -0.5199 H   0  0
   24.1222  -25.1821    0.0133 H   0  0
   26.3263  -23.8984    0.1039 H   0  0
   24.0931  -20.2085    0.0865 H   0  0
   21.9992  -21.4277    0.0000 H   0  0
   17.2168  -15.9361    0.8146 H   0  0
   17.2382  -17.3869    1.8451 H   0  0
   16.0326  -17.2368    0.5445 H   0  0
   12.3624  -18.4734   -0.6079 H   0  0
   13.1273  -18.2343    0.9811 H   0  0
   11.8892  -19.4952    0.7701 H   0  0
   11.2936  -22.6146   -1.2998 H   0  0
   12.8383  -23.0808   -2.0505 H   0  0
   12.7583  -21.6516   -0.9929 H   0  0
  1  2  1  0
  2  3  1  0
  3  4  1  0
  4  5  1  0
  5  6  1  0
  6  1  1  0
  6  7  1  0
  2  8  1  0
  1  9  1  0
  3 10  1  0
  4 11  2  0
  7 12  1  0
 10 13  1  0
 13 14  2  0
 13 15  1  0
 11 16  1  0
 16 17  1  0
 17 18  1  0
 17 19  2  0
 17 20  2  0
 18 21  2  0
 21 22  1  0
 22 23  2  0
 23 24  1  0
 24 25  2  0
 25 18  1  0
 23 26  1  0
 12 27  1  0
 27 28  2  0
 27 29  1  0
  9 30  1  0
 30 31  2  0
 30 32  1  0
  8 33  1  0
 33 34  2  0
 33 35  1  0
  1 36  1  0
  2 37  1  0
  3 38  1  0
  6 39  1  0
  7 40  1  0
  7 41  1  0
 10 42  1  0
 15 43  1  0
 15 44  1  0
 15 45  1  0
 16 46  1  0
 21 47  1  0
 22 48  1  0
 24 49  1  0
 25 50  1  0
 29 51  1  0
 29 52  1  0
 29 53  1  0
 32 54  1  0
 32 55  1  0
 32 56  1  0
 35 57  1  0
 35 58  1  0
 35 59  1  0
M  END
> <Name>
4c Kiss et al., 2022

> <Clean Energy>
55.3192253112793

> <Reference>
Kiss et al., 2022

> <Forcefield>
MMFF

> <ForcefieldBase>
MMFF

> <ForcefieldFFML>
<?xml version="1.0" encoding="UTF-8"?>
<!DOCTYPE ffml SYSTEM "Ffml.dtd">
<ffml version="1.0">
<forcefield name="4c Kiss et al., 2022-MMFF" derivedFrom="MMFF" base="MMFF">
<atomTypes>
<atomType
 name="C100"
 element="C"
 mass="12.011"
 annotation=""/>
<atomType
 name="O101"
 element="O"
 mass="16"
 annotation=""/>
<atomType
 name="N102"
 element="N"
 mass="14.007"
 annotation=""/>
<atomType
 name="S103"
 element="S"
 mass="32.066"
 annotation=""/>
<atomType
 name="F104"
 element="F"
 mass="18.998"
 annotation=""/>
<atomType
 name="H105"
 element="H"
 mass="1.008"
 annotation=""/>
</atomTypes>
<parameters>
</parameters>
</forcefield>
</ffml>

$$$$
4d Kiss et al., 2022
  SciTegic07212313593D

 59 60  0  0  0  0            999 V2000
   15.4819  -21.7049    0.8031 C   0  0  1  0  0  0
   15.1574  -23.0243   -0.0222 C   0  0  1  0  0  0
   16.4229  -23.9348    0.1851 C   0  0  2  0  0  0
   17.7236  -23.2353   -0.0770 C   0  0
   17.8780  -21.8561   -0.0488 O   0  0
   16.6607  -21.0538    0.0054 C   0  0  2  0  0  0
   17.0526  -19.6911    0.5787 C   0  0
   14.0196  -23.7940    0.5012 O   0  0
   14.3697  -20.7135    0.9693 O   0  0
   16.3838  -25.2085   -0.5205 N   0  0
   18.7967  -23.9683   -0.1637 N   0  0
   18.0146  -19.0853   -0.2892 O   0  0
   15.5679  -26.2185   -0.2159 C   0  0
   14.7434  -26.1138    0.7137 O   0  0
   15.6396  -27.5028   -0.9834 C   0  0
   20.0145  -23.3989   -0.2888 N   0  0
   21.4164  -24.3847   -0.0679 S   0  0
   22.9389  -23.4494   -0.0023 C   0  0
   21.5190  -25.3890   -1.1973 O   0  0
   21.2866  -25.1679    1.2229 O   0  0
   24.1008  -24.1075    0.0251 C   0  0
   25.3679  -23.3736    0.0755 C   0  0
   25.3656  -22.0433    0.0948 C   0  0
   24.0891  -21.3132    0.0677 C   0  0
   22.9346  -21.9821    0.0217 C   0  0
   26.8639  -21.1785    0.1494 Cl  0  0
   18.0143  -17.6885   -0.1256 C   0  0
   18.7789  -16.9948   -0.8048 O   0  0
   17.0608  -17.0167    0.8370 C   0  0
   13.7887  -19.9659   -0.0763 C   0  0
   14.1459  -20.0765   -1.2528 O   0  0
   12.7157  -18.9717    0.2891 C   0  0
   12.6834  -23.5200    0.0320 C   0  0
   11.7488  -24.1399    0.5519 O   0  0
   12.3654  -22.6552   -1.1598 C   0  0
   15.8447  -21.9911    1.7903 H   0  0
   15.0155  -22.7945   -1.0782 H   0  0
   16.4331  -24.1865    1.2456 H   0  0
   16.3212  -20.8973   -1.0185 H   0  0
   16.1699  -19.0553    0.6476 H   0  0
   17.4852  -19.8218    1.5706 H   0  0
   17.0571  -25.3432   -1.3411 H   0  0
   14.9012  -28.2024   -0.5919 H   0  0
   16.6362  -27.9324   -0.8815 H   0  0
   15.4337  -27.3094   -2.0362 H   0  0
   20.1095  -22.3585   -0.5199 H   0  0
   24.1064  -25.1974    0.0098 H   0  0
   26.3123  -23.9174    0.0971 H   0  0
   24.0857  -20.2234    0.0853 H   0  0
   21.9898  -21.4389    0.0019 H   0  0
   17.2207  -15.9387    0.8148 H   0  0
   17.2395  -17.3892    1.8457 H   0  0
   16.0339  -17.2372    0.5453 H   0  0
   12.3613  -18.4713   -0.6120 H   0  0
   13.1242  -18.2322    0.9779 H   0  0
   11.8849  -19.4918    0.7660 H   0  0
   11.2854  -22.6111   -1.2995 H   0  0
   12.8295  -23.0784   -2.0507 H   0  0
   12.7510  -21.6494   -0.9927 H   0  0
  1  2  1  0
  2  3  1  0
  3  4  1  0
  4  5  1  0
  5  6  1  0
  6  1  1  0
  6  7  1  0
  2  8  1  0
  1  9  1  0
  3 10  1  0
  4 11  2  0
  7 12  1  0
 10 13  1  0
 13 14  2  0
 13 15  1  0
 11 16  1  0
 16 17  1  0
 17 18  1  0
 17 19  2  0
 17 20  2  0
 18 21  2  0
 21 22  1  0
 22 23  2  0
 23 24  1  0
 24 25  2  0
 25 18  1  0
 23 26  1  0
 12 27  1  0
 27 28  2  0
 27 29  1  0
  9 30  1  0
 30 31  2  0
 30 32  1  0
  8 33  1  0
 33 34  2  0
 33 35  1  0
  1 36  1  0
  2 37  1  0
  3 38  1  0
  6 39  1  0
  7 40  1  0
  7 41  1  0
 10 42  1  0
 15 43  1  0
 15 44  1  0
 15 45  1  0
 16 46  1  0
 21 47  1  0
 22 48  1  0
 24 49  1  0
 25 50  1  0
 29 51  1  0
 29 52  1  0
 29 53  1  0
 32 54  1  0
 32 55  1  0
 32 56  1  0
 35 57  1  0
 35 58  1  0
 35 59  1  0
M  END
> <Name>
4d Kiss et al., 2022

> <Clean Energy>
55.339225769043

> <Reference>
Kiss et al., 2022

> <Forcefield>
MMFF

> <ForcefieldBase>
MMFF

> <ForcefieldFFML>
<?xml version="1.0" encoding="UTF-8"?>
<!DOCTYPE ffml SYSTEM "Ffml.dtd">
<ffml version="1.0">
<forcefield name="4d Kiss et al., 2022-MMFF" derivedFrom="MMFF" base="MMFF">
<atomTypes>
<atomType
 name="C100"
 element="C"
 mass="12.011"
 annotation=""/>
<atomType
 name="O101"
 element="O"
 mass="16"
 annotation=""/>
<atomType
 name="N102"
 element="N"
 mass="14.007"
 annotation=""/>
<atomType
 name="S103"
 element="S"
 mass="32.066"
 annotation=""/>
<atomType
 name="Cl104"
 element="Cl"
 mass="35.453"
 annotation=""/>
<atomType
 name="H105"
 element="H"
 mass="1.008"
 annotation=""/>
</atomTypes>
<parameters>
</parameters>
</forcefield>
</ffml>

$$$$
4e Kiss et al., 2022
  SciTegic07212313593D

 65 67  0  0  0  0            999 V2000
   16.2347  -21.7837    0.7996 C   0  0  1  0  0  0
   15.9196  -23.1110   -0.0211 C   0  0  1  0  0  0
   17.1828  -24.0152    0.2077 C   0  0  2  0  0  0
   18.5109  -23.3229   -0.0519 C   0  0
   18.6369  -21.9316   -0.0352 O   0  0
   17.4195  -21.1353    0.0067 C   0  0  2  0  0  0
   17.7973  -19.7730    0.5828 C   0  0
   14.7711  -23.8673    0.4995 O   0  0
   15.1267  -20.7882    0.9714 O   0  0
   17.1657  -25.3096   -0.4831 N   0  0
   19.5777  -24.0275   -0.1227 N   0  0
   18.7682  -19.1572   -0.2662 O   0  0
   16.3082  -26.3037   -0.2030 C   0  0
   15.4425  -26.1794    0.6698 O   0  0
   16.4109  -27.6016   -0.9522 C   0  0
   20.8117  -23.4479   -0.2419 N   0  0
   22.2366  -24.4339   -0.1437 S   0  0
   23.7827  -23.5141   -0.0892 C   0  0
   22.1636  -25.3162    1.0901 O   0  0
   22.2882  -25.3551   -1.3448 O   0  0
   24.9352  -24.1886   -0.0651 C   0  0
   26.2208  -23.4767   -0.0625 C   0  0
   26.2406  -22.1457    0.0056 C   0  0
   24.9740  -21.3954   -0.0287 C   0  0
   23.8053  -22.0443   -0.0459 C   0  0
   27.4815  -24.2306   -0.0289 C   0  0
   28.6468  -23.5840   -0.0195 C   0  0
   28.6708  -22.1186    0.0181 C   0  0
   27.5274  -21.4329    0.0040 C   0  0
   18.7311  -17.7593   -0.1120 C   0  0
   14.5340  -20.0274   -0.0575 C   0  0
   13.4386  -23.5835    0.0196 C   0  0
   19.5011  -17.0521   -0.7705 O   0  0
   14.8737  -20.1244   -1.2396 O   0  0
   12.4946  -24.1915    0.5341 O   0  0
   17.7315  -17.1037    0.8156 C   0  0
   13.4737  -19.0290    0.3396 C   0  0
   13.1372  -22.7183   -1.1781 C   0  0
   16.5972  -22.0684    1.7873 H   0  0
   15.7890  -22.8893   -1.0803 H   0  0
   17.1816  -24.2530    1.2714 H   0  0
   17.0875  -20.9815   -1.0201 H   0  0
   16.9101  -19.1423    0.6393 H   0  0
   18.2158  -19.9026    1.5809 H   0  0
   17.8831  -25.4716   -1.2603 H   0  0
   15.6422  -28.2882   -0.5978 H   0  0
   17.3945  -28.0409   -0.7857 H   0  0
   16.2708  -27.4187   -2.0176 H   0  0
   20.8975  -22.3924   -0.3947 H   0  0
   24.9221  -25.2784   -0.0472 H   0  0
   24.9894  -20.3056   -0.0401 H   0  0
   22.8702  -21.4845   -0.0278 H   0  0
   27.4636  -25.3203   -0.0117 H   0  0
   29.5815  -24.1444   -0.0397 H   0  0
   29.6231  -21.5898    0.0576 H   0  0
   27.5461  -20.3432   -0.0087 H   0  0
   17.8676  -16.0226    0.7915 H   0  0
   17.8859  -17.4663    1.8318 H   0  0
   16.7199  -17.3494    0.4924 H   0  0
   13.1058  -18.5162   -0.5490 H   0  0
   13.9003  -18.3000    1.0287 H   0  0
   12.6485  -19.5489    0.8263 H   0  0
   12.0587  -22.6651   -1.3265 H   0  0
   13.6046  -23.1481   -2.0642 H   0  0
   13.5303  -21.7155   -1.0107 H   0  0
  1  2  1  0
  2  3  1  0
  3  4  1  0
  4  5  1  0
  5  6  1  0
  6  1  1  0
  6  7  1  0
  2  8  1  0
  1  9  1  0
  3 10  1  0
  4 11  2  0
  7 12  1  0
 10 13  1  0
 13 14  2  0
 13 15  1  0
 11 16  1  0
 16 17  1  0
 17 18  1  0
 17 19  2  0
 17 20  2  0
 18 21  2  0
 21 22  1  0
 22 23  2  0
 23 24  1  0
 24 25  2  0
 25 18  1  0
 22 26  1  0
 26 27  2  0
 27 28  1  0
 28 29  2  0
 29 23  1  0
 12 30  1  0
  9 31  1  0
  8 32  1  0
 30 33  2  0
 31 34  2  0
 32 35  2  0
 30 36  1  0
 31 37  1  0
 32 38  1  0
  1 39  1  0
  2 40  1  0
  3 41  1  0
  6 42  1  0
  7 43  1  0
  7 44  1  0
 10 45  1  0
 15 46  1  0
 15 47  1  0
 15 48  1  0
 16 49  1  0
 21 50  1  0
 24 51  1  0
 25 52  1  0
 26 53  1  0
 27 54  1  0
 28 55  1  0
 29 56  1  0
 36 57  1  0
 36 58  1  0
 36 59  1  0
 37 60  1  0
 37 61  1  0
 37 62  1  0
 38 63  1  0
 38 64  1  0
 38 65  1  0
M  END
> <Name>
4e Kiss et al., 2022

> <Clean Energy>
56.311279296875

> <Reference>
Kiss et al., 2022

> <Forcefield>
MMFF

> <ForcefieldBase>
MMFF

> <ForcefieldFFML>
<?xml version="1.0" encoding="UTF-8"?>
<!DOCTYPE ffml SYSTEM "Ffml.dtd">
<ffml version="1.0">
<forcefield name="4e Kiss et al., 2022-MMFF" derivedFrom="MMFF" base="MMFF">
<atomTypes>
<atomType
 name="C100"
 element="C"
 mass="12.011"
 annotation=""/>
<atomType
 name="O101"
 element="O"
 mass="16"
 annotation=""/>
<atomType
 name="N102"
 element="N"
 mass="14.007"
 annotation=""/>
<atomType
 name="S103"
 element="S"
 mass="32.066"
 annotation=""/>
<atomType
 name="H104"
 element="H"
 mass="1.008"
 annotation=""/>
</atomTypes>
<parameters>
</parameters>
</forcefield>
</ffml>

$$$$
4f Kiss et al., 2022
  SciTegic07212313593D

 71 73  0  0  0  0            999 V2000
   15.6933  -21.4994    0.7673 C   0  0  1  0  0  0
   15.3756  -22.8346   -0.0430 C   0  0  1  0  0  0
   16.6320  -23.7378    0.2044 C   0  0  2  0  0  0
   17.9604  -23.0543   -0.0481 C   0  0
   18.1049  -21.6703   -0.0250 O   0  0
   16.9070  -20.8663   -0.0001 C   0  0  2  0  0  0
   17.2867  -19.5101    0.5877 C   0  0
   14.2288  -23.5911    0.4853 O   0  0
   14.5791  -20.4868    0.9367 O   0  0
   16.6207  -25.0386   -0.4739 N   0  0
   19.0210  -23.7577   -0.1209 N   0  0
   18.2828  -18.9021   -0.2382 O   0  0
   15.7633  -26.0322   -0.1936 C   0  0
   14.8895  -25.9038    0.6702 O   0  0
   15.8772  -27.3352   -0.9320 C   0  0
   20.2308  -23.1570   -0.2362 N   0  0
   21.6668  -24.1018   -0.1411 S   0  0
   23.2112  -23.1705   -0.0913 C   0  0
   21.6118  -24.9815    1.0942 O   0  0
   21.7216  -25.0297   -1.3381 O   0  0
   24.3500  -23.8641   -0.1052 C   0  0
   25.6438  -23.1838   -0.0736 C   0  0
   25.6972  -21.8561   -0.0404 C   0  0
   24.4626  -21.0728   -0.0215 C   0  0
   23.2722  -21.6836   -0.0525 C   0  0
   24.5433  -19.6113    0.0139 C   0  0
   23.4301  -18.8830    0.0309 C   0  0
   22.1248  -19.5461    0.0055 C   0  0
   22.0502  -20.8762   -0.0296 C   0  0
   18.2502  -17.5035   -0.0873 C   0  0
   13.9278  -19.6385   -0.0357 C   0  0
   12.8958  -23.3282    0.0100 C   0  0
   19.1010  -16.7477   -0.7769 C   0  0
   14.2143  -19.5835   -1.3371 C   0  0
   11.8885  -23.9881    0.5746 C   0  0
   17.2309  -16.8401    0.8133 C   0  0
   12.8879  -18.6919    0.5041 C   0  0
   12.5831  -22.4853   -1.1916 C   0  0
   16.0387  -21.7856    1.7608 H   0  0
   15.2488  -22.6253   -1.1052 H   0  0
   16.6205  -23.9659    1.2703 H   0  0
   16.5968  -20.7038   -1.0323 H   0  0
   16.4053  -18.8701    0.6267 H   0  0
   17.6818  -19.6469    1.5944 H   0  0
   17.3446  -25.2063   -1.2438 H   0  0
   15.1072  -28.0215   -0.5796 H   0  0
   16.8605  -27.7702   -0.7529 H   0  0
   15.7465  -27.1609   -2.0000 H   0  0
   20.2929  -22.0993   -0.3857 H   0  0
   24.3159  -24.9530   -0.1407 H   0  0
   26.5654  -23.7658   -0.0772 H   0  0
   26.6627  -21.3504   -0.0273 H   0  0
   25.5160  -19.1196    0.0263 H   0  0
   23.4896  -17.7952    0.0637 H   0  0
   21.2121  -18.9503    0.0153 H   0  0
   21.0761  -21.3652   -0.0414 H   0  0
   19.8176  -17.2126   -1.4540 H   0  0
   19.0812  -15.6636   -0.6648 H   0  0
   15.0012  -20.2153   -1.7491 H   0  0
   13.6617  -18.9067   -1.9887 H   0  0
   12.0852  -24.7037    1.3729 H   0  0
   10.8663  -23.8133    0.2389 H   0  0
   17.3740  -15.7598    0.7909 H   0  0
   17.3570  -17.2017    1.8338 H   0  0
   16.2264  -17.0803    0.4646 H   0  0
   12.4678  -18.1075   -0.3145 H   0  0
   13.3481  -18.0212    1.2298 H   0  0
   12.0941  -19.2609    0.9882 H   0  0
   11.5036  -22.4445   -1.3365 H   0  0
   13.0513  -22.9217   -2.0739 H   0  0
   12.9670  -21.4767   -1.0383 H   0  0
  1  2  1  0
  2  3  1  0
  3  4  1  0
  4  5  1  0
  5  6  1  0
  6  1  1  0
  6  7  1  0
  2  8  1  0
  1  9  1  0
  3 10  1  0
  4 11  2  0
  7 12  1  0
 10 13  1  0
 13 14  2  0
 13 15  1  0
 11 16  1  0
 16 17  1  0
 17 18  1  0
 17 19  2  0
 17 20  2  0
 18 21  2  0
 21 22  1  0
 22 23  2  0
 23 24  1  0
 24 25  2  0
 25 18  1  0
 24 26  1  0
 26 27  2  0
 27 28  1  0
 28 29  2  0
 29 25  1  0
 12 30  1  0
  9 31  1  0
  8 32  1  0
 30 33  2  0
 31 34  2  0
 32 35  2  0
 30 36  1  0
 31 37  1  0
 32 38  1  0
  1 39  1  0
  2 40  1  0
  3 41  1  0
  6 42  1  0
  7 43  1  0
  7 44  1  0
 10 45  1  0
 15 46  1  0
 15 47  1  0
 15 48  1  0
 16 49  1  0
 21 50  1  0
 22 51  1  0
 23 52  1  0
 26 53  1  0
 27 54  1  0
 28 55  1  0
 29 56  1  0
 33 57  1  0
 33 58  1  0
 34 59  1  0
 34 60  1  0
 35 61  1  0
 35 62  1  0
 36 63  1  0
 36 64  1  0
 36 65  1  0
 37 66  1  0
 37 67  1  0
 37 68  1  0
 38 69  1  0
 38 70  1  0
 38 71  1  0
M  END
> <Name>
4f Kiss et al., 2022

> <Clean Energy>
61.7255477905273

> <Reference>
Kiss et al., 2022

> <Forcefield>
MMFF

> <ForcefieldBase>
MMFF

> <ForcefieldFFML>
<?xml version="1.0" encoding="UTF-8"?>
<!DOCTYPE ffml SYSTEM "Ffml.dtd">
<ffml version="1.0">
<forcefield name="4f Kiss et al., 2022-MMFF" derivedFrom="MMFF" base="MMFF">
<atomTypes>
<atomType
 name="C100"
 element="C"
 mass="12.011"
 annotation=""/>
<atomType
 name="O101"
 element="O"
 mass="16"
 annotation=""/>
<atomType
 name="N102"
 element="N"
 mass="14.007"
 annotation=""/>
<atomType
 name="S103"
 element="S"
 mass="32.066"
 annotation=""/>
<atomType
 name="H104"
 element="H"
 mass="1.008"
 annotation=""/>
</atomTypes>
<parameters>
</parameters>
</forcefield>
</ffml>

$$$$
3a Kiss et al., 2022
  SciTegic07212313593D

 64 65  0  0  0  0            999 V2000
   20.2580  -21.5107    0.2927 C   0  0  1  0  0  0
   20.2100  -22.9881   -0.2388 C   0  0  1  0  0  0
   21.4495  -23.7507    0.3136 C   0  0  2  0  0  0
   22.7368  -23.0173   -0.1575 C   0  0  1  0  0  0
   22.7545  -21.6617    0.3235 O   0  0
   21.6472  -20.8960   -0.2091 C   0  0  2  0  0  0
   21.8363  -19.4385    0.2368 C   0  0
   19.0057  -23.6807    0.2422 O   0  0
   19.0780  -20.8076   -0.2649 O   0  0
   21.5026  -25.1171   -0.2251 N   0  0
   23.9257  -23.7320    0.3608 N   0  0
   23.0345  -18.8631   -0.2465 O   0  0
   20.6273  -26.0939    0.0646 C   0  0
   19.6808  -25.9098    0.8283 O   0  0
   20.8092  -27.4427   -0.5741 C   0  0
   25.1085  -23.0306    0.0252 N   0  0
   26.4830  -24.1123    0.0965 S   0  0
   28.0256  -23.2273    0.0022 C   0  0
   26.4634  -24.8798    1.4040 O   0  0
   26.4143  -25.1212   -1.0341 O   0  0
   29.1708  -23.9062   -0.0702 C   0  0
   30.4503  -23.1921   -0.1264 C   0  0
   30.4708  -21.8608   -0.1001 C   0  0
   29.2116  -21.1109   -0.0192 C   0  0
   28.0477  -21.7606    0.0288 C   0  0
   31.7823  -21.1290   -0.1523 C   0  0
   22.9637  -17.5001    0.0413 C   0  0
   24.0792  -16.5816   -0.3536 C   0  0
   21.9617  -17.0436    0.6070 O   0  0
   18.6634  -19.5775    0.3032 C   0  0
   17.4959  -18.8552   -0.3033 C   0  0
   19.2089  -19.1126    1.3076 O   0  0
   17.7675  -23.2873   -0.3042 C   0  0
   16.5101  -23.9243    0.2129 C   0  0
   17.6954  -22.4596   -1.2151 O   0  0
   20.2175  -21.5036    1.3819 H   0  0
   20.2287  -22.9907   -1.3286 H   0  0
   21.4144  -23.7803    1.4026 H   0  0
   22.7682  -23.0119   -1.2470 H   0  0
   21.6795  -20.9391   -1.2977 H   0  0
   20.9957  -18.8509   -0.1321 H   0  0
   21.8514  -19.4080    1.3262 H   0  0
   22.2995  -25.3517   -0.8995 H   0  0
   23.9630  -24.7114   -0.0686 H   0  0
   20.0207  -28.1148   -0.2357 H   0  0
   21.7798  -27.8509   -0.2920 H   0  0
   20.7592  -27.3416   -1.6583 H   0  0
   25.2530  -22.2275    0.7173 H   0  0
   29.1560  -24.9959   -0.0876 H   0  0
   31.3841  -23.7506   -0.1897 H   0  0
   29.2277  -20.0212    0.0016 H   0  0
   27.1135  -21.2022    0.0879 H   0  0
   31.6010  -20.0547   -0.1209 H   0  0
   32.3037  -21.3821   -1.0755 H   0  0
   32.3948  -21.4186    0.7016 H   0  0
   23.8395  -15.5643   -0.0443 H   0  0
   24.2089  -16.6108   -1.4354 H   0  0
   25.0019  -16.9004    0.1314 H   0  0
   17.3107  -17.9343    0.2495 H   0  0
   16.6112  -19.4903   -0.2570 H   0  0
   17.7167  -18.6158   -1.3435 H   0  0
   15.6497  -23.5100   -0.3125 H   0  0
   16.4138  -23.7253    1.2803 H   0  0
   16.5528  -25.0008    0.0469 H   0  0
  1  2  1  0
  2  3  1  0
  3  4  1  0
  4  5  1  0
  5  6  1  0
  6  1  1  0
  6  7  1  0
  2  8  1  0
  1  9  1  0
  3 10  1  0
  4 11  1  0
  7 12  1  0
 10 13  1  0
 13 14  2  0
 13 15  1  0
 11 16  1  0
 16 17  1  0
 17 18  1  0
 17 19  2  0
 17 20  2  0
 18 21  2  0
 21 22  1  0
 22 23  2  0
 23 24  1  0
 24 25  2  0
 25 18  1  0
 23 26  1  0
 12 27  1  0
 27 28  1  0
 27 29  2  0
  9 30  1  0
 30 31  1  0
 30 32  2  0
  8 33  1  0
 33 34  1  0
 33 35  2  0
  1 36  1  0
  2 37  1  0
  3 38  1  0
  4 39  1  0
  6 40  1  0
  7 41  1  0
  7 42  1  0
 10 43  1  0
 11 44  1  0
 15 45  1  0
 15 46  1  0
 15 47  1  0
 16 48  1  0
 21 49  1  0
 22 50  1  0
 24 51  1  0
 25 52  1  0
 26 53  1  0
 26 54  1  0
 26 55  1  0
 28 56  1  0
 28 57  1  0
 28 58  1  0
 31 59  1  0
 31 60  1  0
 31 61  1  0
 34 62  1  0
 34 63  1  0
 34 64  1  0
M  END
> <Name>
3a Kiss et al., 2022

> <Clean Energy>
17.1353721618652

> <Reference>
Kiss et al., 2022

> <Forcefield>
MMFF

> <ForcefieldBase>
MMFF

> <ForcefieldFFML>
<?xml version="1.0" encoding="UTF-8"?>
<!DOCTYPE ffml SYSTEM "Ffml.dtd">
<ffml version="1.0">
<forcefield name="3a Kiss et al., 2022-MMFF" derivedFrom="MMFF" base="MMFF">
<atomTypes>
<atomType
 name="C100"
 element="C"
 mass="12.011"
 annotation=""/>
<atomType
 name="O101"
 element="O"
 mass="16"
 annotation=""/>
<atomType
 name="N102"
 element="N"
 mass="14.007"
 annotation=""/>
<atomType
 name="S103"
 element="S"
 mass="32.066"
 annotation=""/>
<atomType
 name="H104"
 element="H"
 mass="1.008"
 annotation=""/>
</atomTypes>
<parameters>
</parameters>
</forcefield>
</ffml>

$$$$
3b Kiss et al., 2022
  SciTegic07212313593D

 64 65  0  0  0  0            999 V2000
   16.0039  -21.6107    0.2882 C   0  0  1  0  0  0
   15.9716  -23.0864   -0.2456 C   0  0  1  0  0  0
   17.2259  -23.8370    0.3000 C   0  0  2  0  0  0
   18.5082  -23.0817   -0.1777 C   0  0  1  0  0  0
   18.5045  -21.7278    0.3075 O   0  0
   17.3825  -20.9775   -0.2181 C   0  0  2  0  0  0
   17.5571  -19.5166    0.2272 C   0  0
   14.7744  -23.7920    0.2401 O   0  0
   14.8139  -20.9216   -0.2635 O   0  0
   17.2841  -25.2030   -0.2412 N   0  0
   19.7233  -23.7750    0.3310 N   0  0
   18.7573  -18.9342   -0.2650 O   0  0
   16.4168  -26.1854    0.0595 C   0  0
   15.4792  -26.0064    0.8354 O   0  0
   16.5955  -27.5330   -0.5826 C   0  0
   20.9035  -23.0450   -0.0009 N   0  0
   22.3030  -24.1065    0.0629 S   0  0
   23.8600  -23.2207    0.0100 C   0  0
   22.2734  -24.9033    1.3525 O   0  0
   22.2561  -25.0956   -1.0862 O   0  0
   24.9999  -23.9119   -0.0361 C   0  0
   26.2919  -23.2173   -0.0486 C   0  0
   26.3344  -21.8876   -0.0081 C   0  0
   25.0810  -21.1184    0.0419 C   0  0
   23.9041  -21.7513    0.0500 C   0  0
   27.6664  -21.1798   -0.0065 C   0  0
   28.6457  -22.0013    0.5177 F   0  0
   27.5733  -19.9844    0.6762 F   0  0
   28.0042  -20.8941   -1.3127 F   0  0
   18.7394  -17.5433   -0.0149 C   0  0
   19.6944  -16.8461   -0.3721 O   0  0
   17.5545  -16.8833    0.6638 C   0  0
   14.3840  -19.7028    0.3145 C   0  0
   13.2062  -18.9908   -0.2845 C   0  0
   14.9245  -19.2403    1.3226 O   0  0
   13.5278  -23.4102   -0.3001 C   0  0
   12.2788  -24.0589    0.2238 C   0  0
   13.4422  -22.5826   -1.2100 O   0  0
   15.9676  -21.6059    1.3775 H   0  0
   15.9849  -23.0865   -1.3355 H   0  0
   17.1964  -23.8688    1.3891 H   0  0
   18.5322  -23.0712   -1.2674 H   0  0
   17.4102  -21.0193   -1.3070 H   0  0
   16.7111  -18.9362   -0.1410 H   0  0
   17.5744  -19.4836    1.3165 H   0  0
   18.0749  -25.4320   -0.9246 H   0  0
   19.7795  -24.7495   -0.1073 H   0  0
   15.8146  -28.2087   -0.2337 H   0  0
   17.5715  -27.9374   -0.3143 H   0  0
   16.5300  -27.4315   -1.6659 H   0  0
   21.0335  -22.2448    0.6974 H   0  0
   24.9712  -25.0012   -0.0647 H   0  0
   27.2180  -23.7907   -0.0910 H   0  0
   25.1125  -20.0293    0.0725 H   0  0
   22.9773  -21.1788    0.0863 H   0  0
   17.7402  -15.8137    0.7611 H   0  0
   17.4131  -17.3185    1.6532 H   0  0
   16.6573  -17.0428    0.0656 H   0  0
   13.0098  -18.0770    0.2762 H   0  0
   12.3300  -19.6378   -0.2423 H   0  0
   13.4224  -18.7399   -1.3230 H   0  0
   11.4118  -23.6527   -0.2971 H   0  0
   12.1862  -23.8605    1.2916 H   0  0
   12.3306  -25.1349    0.0577 H   0  0
  1  2  1  0
  2  3  1  0
  3  4  1  0
  4  5  1  0
  5  6  1  0
  6  1  1  0
  6  7  1  0
  2  8  1  0
  1  9  1  0
  3 10  1  0
  4 11  1  0
  7 12  1  0
 10 13  1  0
 13 14  2  0
 13 15  1  0
 11 16  1  0
 16 17  1  0
 17 18  1  0
 17 19  2  0
 17 20  2  0
 18 21  2  0
 21 22  1  0
 22 23  2  0
 23 24  1  0
 24 25  2  0
 25 18  1  0
 23 26  1  0
 26 27  1  0
 26 28  1  0
 26 29  1  0
 12 30  1  0
 30 31  2  0
 30 32  1  0
  9 33  1  0
 33 34  1  0
 33 35  2  0
  8 36  1  0
 36 37  1  0
 36 38  2  0
  1 39  1  0
  2 40  1  0
  3 41  1  0
  4 42  1  0
  6 43  1  0
  7 44  1  0
  7 45  1  0
 10 46  1  0
 11 47  1  0
 15 48  1  0
 15 49  1  0
 15 50  1  0
 16 51  1  0
 21 52  1  0
 22 53  1  0
 24 54  1  0
 25 55  1  0
 32 56  1  0
 32 57  1  0
 32 58  1  0
 34 59  1  0
 34 60  1  0
 34 61  1  0
 37 62  1  0
 37 63  1  0
 37 64  1  0
M  END
> <Name>
3b Kiss et al., 2022

> <Clean Energy>
30.1343193054199

> <Reference>
Kiss et al., 2022

> <Forcefield>
MMFF

> <ForcefieldBase>
MMFF

> <ForcefieldFFML>
<?xml version="1.0" encoding="UTF-8"?>
<!DOCTYPE ffml SYSTEM "Ffml.dtd">
<ffml version="1.0">
<forcefield name="3b Kiss et al., 2022-MMFF" derivedFrom="MMFF" base="MMFF">
<atomTypes>
<atomType
 name="C100"
 element="C"
 mass="12.011"
 annotation=""/>
<atomType
 name="O101"
 element="O"
 mass="16"
 annotation=""/>
<atomType
 name="N102"
 element="N"
 mass="14.007"
 annotation=""/>
<atomType
 name="S103"
 element="S"
 mass="32.066"
 annotation=""/>
<atomType
 name="F104"
 element="F"
 mass="18.998"
 annotation=""/>
<atomType
 name="H105"
 element="H"
 mass="1.008"
 annotation=""/>
</atomTypes>
<parameters>
</parameters>
</forcefield>
</ffml>

$$$$
3c Kiss et al., 2022
  SciTegic07212313593D

 61 62  0  0  0  0            999 V2000
   15.4108  -21.7126    0.7644 C   0  0  1  0  0  0
   15.1226  -23.0860   -0.0004 C   0  0  1  0  0  0
   16.4159  -23.9529    0.1985 C   0  0  2  0  0  0
   17.6641  -23.2193   -0.3417 C   0  0  1  0  0  0
   17.8124  -21.9475    0.2679 O   0  0
   16.6688  -21.0762    0.1213 C   0  0  2  0  0  0
   17.0001  -19.7339    0.7666 C   0  0
   13.9821  -23.8010    0.5599 O   0  0
   14.2942  -20.7295    0.8619 O   0  0
   16.3316  -25.2586   -0.4501 N   0  0
   18.8741  -24.0341   -0.0365 N   0  0
   18.0888  -19.1487    0.0417 O   0  0
   15.5092  -26.2455   -0.1166 C   0  0
   14.6945  -26.1072    0.8308 O   0  0
   15.5426  -27.5466   -0.8517 C   0  0
   20.0697  -23.3305   -0.3357 N   0  0
   21.4573  -24.3631   -0.0143 S   0  0
   22.9984  -23.4632   -0.0611 C   0  0
   21.3242  -24.9740    1.3680 O   0  0
   21.5103  -25.4982   -1.0186 O   0  0
   24.1497  -24.1335   -0.1217 C   0  0
   25.4266  -23.4113   -0.1450 C   0  0
   25.4387  -22.0804   -0.1003 C   0  0
   24.1731  -21.3394   -0.0294 C   0  0
   23.0119  -21.9964   -0.0111 C   0  0
   26.6075  -21.4186   -0.1207 F   0  0
   18.0145  -17.7425    0.0761 C   0  0
   18.8688  -17.0724   -0.5145 O   0  0
   16.8795  -17.0378    0.7842 C   0  0
   13.7934  -20.0029   -0.2400 C   0  0
   14.2279  -20.1376   -1.3792 O   0  0
   12.6943  -19.0012    0.0379 C   0  0
   12.6456  -23.5378    0.0859 C   0  0
   11.7063  -24.1039    0.6413 O   0  0
   12.3405  -22.7362   -1.1596 C   0  0
   15.6833  -21.9766    1.7862 H   0  0
   14.9598  -22.8959   -1.0612 H   0  0
   16.5543  -24.1142    1.2675 H   0  0
   17.5731  -23.0956   -1.4208 H   0  0
   16.4799  -20.9190   -0.9407 H   0  0
   16.1310  -19.0777    0.7213 H   0  0
   17.2880  -19.8852    1.8070 H   0  0
   16.9948  -25.4363   -1.2708 H   0  0
   18.8702  -24.2843    1.0038 H   0  0
   14.7971  -28.2214   -0.4311 H   0  0
   16.5320  -27.9937   -0.7553 H   0  0
   15.3231  -27.3749   -1.9055 H   0  0
   20.1292  -22.4538    0.2748 H   0  0
   24.1420  -25.2230   -0.1541 H   0  0
   26.3647  -23.9637   -0.1989 H   0  0
   24.1822  -20.2501    0.0085 H   0  0
   22.0736  -21.4440    0.0410 H   0  0
   17.0080  -15.9592    0.6938 H   0  0
   16.8795  -17.3160    1.8381 H   0  0
   15.9315  -17.3293    0.3319 H   0  0
   12.4022  -18.5141   -0.8924 H   0  0
   13.0549  -18.2514    0.7422 H   0  0
   11.8329  -19.5152    0.4644 H   0  0
   11.2612  -22.6809   -1.3014 H   0  0
   12.7957  -23.2197   -2.0240 H   0  0
   12.7444  -21.7295   -1.0524 H   0  0
  1  2  1  0
  2  3  1  0
  3  4  1  0
  4  5  1  0
  5  6  1  0
  6  1  1  0
  6  7  1  0
  2  8  1  0
  1  9  1  0
  3 10  1  0
  7 12  1  0
 10 13  1  0
 13 14  2  0
 13 15  1  0
 11 16  1  0
 16 17  1  0
 17 18  1  0
 17 19  2  0
 17 20  2  0
 18 21  2  0
 21 22  1  0
 22 23  2  0
 23 24  1  0
 24 25  2  0
 25 18  1  0
 23 26  1  0
 12 27  1  0
 27 28  2  0
 27 29  1  0
  9 30  1  0
 30 31  2  0
 30 32  1  0
  8 33  1  0
 33 34  2  0
 33 35  1  0
  4 11  1  0
  1 36  1  0
  2 37  1  0
  3 38  1  0
  4 39  1  0
  6 40  1  0
  7 41  1  0
  7 42  1  0
 10 43  1  0
 11 44  1  0
 15 45  1  0
 15 46  1  0
 15 47  1  0
 16 48  1  0
 21 49  1  0
 22 50  1  0
 24 51  1  0
 25 52  1  0
 29 53  1  0
 29 54  1  0
 29 55  1  0
 32 56  1  0
 32 57  1  0
 32 58  1  0
 35 59  1  0
 35 60  1  0
 35 61  1  0
M  END
> <Name>
3c Kiss et al., 2022

> <Clean Energy>
29.9205436706543

> <Reference>
Kiss et al., 2022

> <Forcefield>
MMFF

> <ForcefieldBase>
MMFF

> <ForcefieldFFML>
<?xml version="1.0" encoding="UTF-8"?>
<!DOCTYPE ffml SYSTEM "Ffml.dtd">
<ffml version="1.0">
<forcefield name="3c Kiss et al., 2022-MMFF" derivedFrom="MMFF" base="MMFF">
<atomTypes>
<atomType
 name="C100"
 element="C"
 mass="12.011"
 annotation=""/>
<atomType
 name="O101"
 element="O"
 mass="16"
 annotation=""/>
<atomType
 name="N102"
 element="N"
 mass="14.007"
 annotation=""/>
<atomType
 name="S103"
 element="S"
 mass="32.066"
 annotation=""/>
<atomType
 name="F104"
 element="F"
 mass="18.998"
 annotation=""/>
<atomType
 name="H105"
 element="H"
 mass="1.008"
 annotation=""/>
</atomTypes>
<parameters>
</parameters>
</forcefield>
</ffml>

$$$$
3d Kiss et al., 2022
  SciTegic07212313593D

 61 62  0  0  0  0            999 V2000
   15.4065  -21.7204    0.7838 C   0  0  1  0  0  0
   15.1177  -23.0771   -0.0253 C   0  0  1  0  0  0
   16.4016  -23.9593    0.2231 C   0  0  2  0  0  0
   17.6535  -23.2231   -0.3540 C   0  0  1  0  0  0
   17.8072  -21.9524    0.2730 O   0  0
   16.6609  -21.0766    0.1106 C   0  0  2  0  0  0
   16.9976  -19.7365    0.7678 C   0  0
   13.9733  -23.8036    0.5665 O   0  0
   14.2914  -20.7280    0.8534 O   0  0
   16.3298  -25.2579   -0.4647 N   0  0
   18.8626  -24.0415   -0.0342 N   0  0
   18.0869  -19.1525    0.0412 O   0  0
   15.4795  -26.2443   -0.0950 C   0  0
   14.6926  -26.1097    0.8185 O   0  0
   15.5335  -27.5478   -0.8551 C   0  0
   20.0587  -23.3414   -0.3364 N   0  0
   21.4428  -24.3757   -0.0063 S   0  0
   22.9841  -23.4778   -0.0577 C   0  0
   21.3064  -24.9755    1.3806 O   0  0
   21.4947  -25.5177   -1.0022 O   0  0
   24.1345  -24.1495   -0.1258 C   0  0
   25.4116  -23.4282   -0.1537 C   0  0
   25.4254  -22.0976   -0.1058 C   0  0
   24.1610  -21.3553   -0.0266 C   0  0
   22.9994  -22.0114   -0.0041 C   0  0
   26.9320  -21.2470   -0.1381 Cl  0  0
   18.0137  -17.7460    0.0761 C   0  0
   18.8690  -17.0766   -0.5145 O   0  0
   16.8795  -17.0401    0.7839 C   0  0
   13.7867  -19.9993   -0.2334 C   0  0
   14.2279  -20.1379   -1.3848 O   0  0
   12.6935  -18.9982    0.0341 C   0  0
   12.6416  -23.5307    0.0807 C   0  0
   11.6952  -24.1026    0.6429 O   0  0
   12.3325  -22.7332   -1.1588 C   0  0
   15.6770  -21.9911    1.8044 H   0  0
   14.9637  -22.8848   -1.0871 H   0  0
   16.5332  -24.1195    1.2932 H   0  0
   17.5552  -23.1015   -1.4327 H   0  0
   16.4666  -20.9234   -0.9510 H   0  0
   16.1307  -19.0768    0.7294 H   0  0
   17.2879  -19.8957    1.8063 H   0  0
   16.9805  -25.4310   -1.2963 H   0  0
   18.8334  -24.9438   -0.6085 H   0  0
   14.7963  -28.2384   -0.4459 H   0  0
   16.5288  -27.9824   -0.7618 H   0  0
   15.3146  -27.3648   -1.9071 H   0  0
   20.1192  -22.4611    0.2687 H   0  0
   24.1256  -25.2389   -0.1608 H   0  0
   26.3489  -23.9813   -0.2136 H   0  0
   24.1713  -20.2661    0.0140 H   0  0
   22.0620  -21.4582    0.0541 H   0  0
   17.0093  -15.9617    0.6937 H   0  0
   16.8789  -17.3185    1.8378 H   0  0
   15.9313  -17.3305    0.3314 H   0  0
   12.4067  -18.5144   -0.8995 H   0  0
   13.0527  -18.2463    0.7369 H   0  0
   11.8289  -19.5083    0.4589 H   0  0
   11.2527  -22.6788   -1.2966 H   0  0
   12.7849  -23.2167   -2.0247 H   0  0
   12.7360  -21.7261   -1.0535 H   0  0
  1  2  1  0
  2  3  1  0
  3  4  1  0
  4  5  1  0
  5  6  1  0
  6  1  1  0
  6  7  1  0
  2  8  1  0
  1  9  1  0
  3 10  1  0
  4 11  1  0
  7 12  1  0
 10 13  1  0
 13 14  2  0
 13 15  1  0
 11 16  1  0
 16 17  1  0
 17 18  1  0
 17 19  2  0
 17 20  2  0
 18 21  2  0
 21 22  1  0
 22 23  2  0
 23 24  1  0
 24 25  2  0
 25 18  1  0
 23 26  1  0
 12 27  1  0
 27 28  2  0
 27 29  1  0
  9 30  1  0
 30 31  2  0
 30 32  1  0
  8 33  1  0
 33 34  2  0
 33 35  1  0
  1 36  1  0
  2 37  1  0
  3 38  1  0
  4 39  1  0
  6 40  1  0
  7 41  1  0
  7 42  1  0
 10 43  1  0
 11 44  1  0
 15 45  1  0
 15 46  1  0
 15 47  1  0
 16 48  1  0
 21 49  1  0
 22 50  1  0
 24 51  1  0
 25 52  1  0
 29 53  1  0
 29 54  1  0
 29 55  1  0
 32 56  1  0
 32 57  1  0
 32 58  1  0
 35 59  1  0
 35 60  1  0
 35 61  1  0
M  END
> <Name>
3d Kiss et al., 2022

> <Clean Energy>
29.8849048614502

> <Reference>
Kiss et al., 2022

> <Forcefield>
MMFF

> <ForcefieldBase>
MMFF

> <ForcefieldFFML>
<?xml version="1.0" encoding="UTF-8"?>
<!DOCTYPE ffml SYSTEM "Ffml.dtd">
<ffml version="1.0">
<forcefield name="3d Kiss et al., 2022-MMFF" derivedFrom="MMFF" base="MMFF">
<atomTypes>
<atomType
 name="C100"
 element="C"
 mass="12.011"
 annotation=""/>
<atomType
 name="O101"
 element="O"
 mass="16"
 annotation=""/>
<atomType
 name="N102"
 element="N"
 mass="14.007"
 annotation=""/>
<atomType
 name="S103"
 element="S"
 mass="32.066"
 annotation=""/>
<atomType
 name="Cl104"
 element="Cl"
 mass="35.453"
 annotation=""/>
<atomType
 name="H105"
 element="H"
 mass="1.008"
 annotation=""/>
</atomTypes>
<parameters>
</parameters>
</forcefield>
</ffml>

$$$$
3e Kiss et al., 2022
  SciTegic07212313593D

 67 69  0  0  0  0            999 V2000
   16.1675  -21.7847    0.7603 C   0  0  1  0  0  0
   15.8805  -23.1555   -0.0207 C   0  0  1  0  0  0
   17.1800  -24.0273    0.2191 C   0  0  2  0  0  0
   18.4401  -23.2895   -0.3422 C   0  0  1  0  0  0
   18.5701  -22.0080    0.2557 O   0  0
   17.4154  -21.1436    0.0924 C   0  0  2  0  0  0
   17.7380  -19.7994    0.7380 C   0  0
   14.7342  -23.8653    0.5585 O   0  0
   15.0517  -20.7923    0.8688 O   0  0
   17.1173  -25.3481   -0.4256 N   0  0
   19.6715  -24.0868   -0.0036 N   0  0
   18.8217  -19.2004    0.0185 O   0  0
   16.2452  -26.3203   -0.1127 C   0  0
   15.3851  -26.1629    0.7599 O   0  0
   16.3241  -27.6374   -0.8311 C   0  0
   20.8769  -23.3633   -0.2837 N   0  0
   22.2871  -24.4048   -0.0360 S   0  0
   23.8487  -23.5122   -0.0493 C   0  0
   22.1759  -25.1098    1.3027 O   0  0
   22.3264  -25.4735   -1.1108 O   0  0
   24.9957  -24.1968   -0.0406 C   0  0
   26.2872  -23.4909   -0.0361 C   0  0
   26.3160  -22.1594   -0.0478 C   0  0
   25.0561  -21.4018   -0.0512 C   0  0
   23.8840  -22.0429   -0.0558 C   0  0
   27.5445  -24.2509   -0.0331 C   0  0
   28.7132  -23.6099   -0.0324 C   0  0
   28.7453  -22.1443   -0.0414 C   0  0
   27.6055  -21.4532   -0.0449 C   0  0
   18.7209  -17.7953    0.0540 C   0  0
   14.5073  -20.0436   -0.1881 C   0  0
   13.4015  -23.5859    0.0713 C   0  0
   19.5698  -17.1078   -0.5243 O   0  0
   14.8966  -20.1546   -1.3528 O   0  0
   12.4505  -24.1429    0.6281 O   0  0
   17.5642  -17.1130    0.7503 C   0  0
   13.4284  -19.0425    0.1576 C   0  0
   13.1062  -22.7863   -1.1760 C   0  0
   16.4540  -22.0526    1.7772 H   0  0
   15.7267  -22.9719   -1.0841 H   0  0
   17.3098  -24.1700    1.2919 H   0  0
   18.3546  -23.1848   -1.4238 H   0  0
   17.2213  -20.9968   -0.9700 H   0  0
   16.8634  -19.1504    0.6932 H   0  0
   18.0261  -19.9505    1.7783 H   0  0
   17.8219  -25.5501   -1.2051 H   0  0
   19.6683  -24.9879   -0.5805 H   0  0
   15.5481  -28.3040   -0.4551 H   0  0
   17.3024  -28.0868   -0.6604 H   0  0
   16.1793  -27.4782   -1.8996 H   0  0
   20.9422  -22.5189    0.3702 H   0  0
   24.9750  -25.2866   -0.0367 H   0  0
   25.0784  -20.3121   -0.0501 H   0  0
   22.9532  -21.4758   -0.0642 H   0  0
   27.5216  -25.3407   -0.0314 H   0  0
   29.6450  -24.1754   -0.0251 H   0  0
   29.7009  -21.6199   -0.0452 H   0  0
   27.6294  -20.3635   -0.0455 H   0  0
   17.6735  -16.0321    0.6631 H   0  0
   17.5572  -17.3931    1.8036 H   0  0
   16.6273  -17.4215    0.2864 H   0  0
   13.0982  -18.5358   -0.7492 H   0  0
   13.8245  -18.3086    0.8595 H   0  0
   12.5837  -19.5602    0.6120 H   0  0
   12.0277  -22.7221   -1.3202 H   0  0
   13.5589  -23.2764   -2.0380 H   0  0
   13.5186  -21.7828   -1.0710 H   0  0
  1  2  1  0
  2  3  1  0
  3  4  1  0
  4  5  1  0
  5  6  1  0
  6  1  1  0
  6  7  1  0
  2  8  1  0
  1  9  1  0
  3 10  1  0
  4 11  1  0
  7 12  1  0
 10 13  1  0
 13 14  2  0
 13 15  1  0
 11 16  1  0
 16 17  1  0
 17 18  1  0
 17 19  2  0
 17 20  2  0
 18 21  2  0
 21 22  1  0
 22 23  2  0
 23 24  1  0
 24 25  2  0
 25 18  1  0
 22 26  1  0
 26 27  2  0
 27 28  1  0
 28 29  2  0
 29 23  1  0
 12 30  1  0
  9 31  1  0
  8 32  1  0
 30 33  2  0
 31 34  2  0
 32 35  2  0
 30 36  1  0
 31 37  1  0
 32 38  1  0
  1 39  1  0
  2 40  1  0
  3 41  1  0
  4 42  1  0
  6 43  1  0
  7 44  1  0
  7 45  1  0
 10 46  1  0
 11 47  1  0
 15 48  1  0
 15 49  1  0
 15 50  1  0
 16 51  1  0
 21 52  1  0
 24 53  1  0
 25 54  1  0
 26 55  1  0
 27 56  1  0
 28 57  1  0
 29 58  1  0
 36 59  1  0
 36 60  1  0
 36 61  1  0
 37 62  1  0
 37 63  1  0
 37 64  1  0
 38 65  1  0
 38 66  1  0
 38 67  1  0
M  END
> <Name>
3e Kiss et al., 2022

> <Clean Energy>
32.1994552612305

> <Reference>
Kiss et al., 2022

> <Forcefield>
MMFF

> <ForcefieldBase>
MMFF

> <ForcefieldFFML>
<?xml version="1.0" encoding="UTF-8"?>
<!DOCTYPE ffml SYSTEM "Ffml.dtd">
<ffml version="1.0">
<forcefield name="3e Kiss et al., 2022-MMFF" derivedFrom="MMFF" base="MMFF">
<atomTypes>
<atomType
 name="C100"
 element="C"
 mass="12.011"
 annotation=""/>
<atomType
 name="O101"
 element="O"
 mass="16"
 annotation=""/>
<atomType
 name="N102"
 element="N"
 mass="14.007"
 annotation=""/>
<atomType
 name="S103"
 element="S"
 mass="32.066"
 annotation=""/>
<atomType
 name="H104"
 element="H"
 mass="1.008"
 annotation=""/>
</atomTypes>
<parameters>
</parameters>
</forcefield>
</ffml>

$$$$
3f Kiss et al., 2022
  SciTegic07212313593D

 73 75  0  0  0  0            999 V2000
   15.6337  -21.5055    0.7390 C   0  0  1  0  0  0
   15.3413  -22.8822   -0.0325 C   0  0  1  0  0  0
   16.6308  -23.7570    0.2192 C   0  0  2  0  0  0
   17.8890  -23.0296   -0.3349 C   0  0  1  0  0  0
   18.0378  -21.7542    0.2674 O   0  0
   16.9072  -20.8795    0.0929 C   0  0  2  0  0  0
   17.2334  -19.5389    0.7464 C   0  0
   14.1953  -23.5914    0.5506 O   0  0
   14.5126  -20.4985    0.8412 O   0  0
   16.5700  -25.0776   -0.4227 N   0  0
   19.1012  -23.8245    0.0002 N   0  0
   18.3351  -18.9478    0.0465 O   0  0
   15.7010  -26.0511   -0.1090 C   0  0
   14.8393  -25.8942    0.7618 O   0  0
   15.7871  -27.3693   -0.8238 C   0  0
   20.2726  -23.0809   -0.2901 N   0  0
   21.7021  -24.0702   -0.0387 S   0  0
   23.2612  -23.1625   -0.0712 C   0  0
   21.6093  -24.7651    1.3071 O   0  0
   21.7518  -25.1513   -1.1002 O   0  0
   24.3913  -23.8690   -0.1151 C   0  0
   25.6926  -23.2004   -0.1344 C   0  0
   25.7609  -21.8727   -0.1119 C   0  0
   24.5365  -21.0758   -0.0577 C   0  0
   23.3403  -21.6739   -0.0440 C   0  0
   24.6327  -19.6141   -0.0330 C   0  0
   23.5283  -18.8736    0.0160 C   0  0
   22.2175  -19.5221    0.0388 C   0  0
   22.1293  -20.8511    0.0145 C   0  0
   18.2391  -17.5412    0.0736 C   0  0
   13.9208  -19.6726   -0.1751 C   0  0
   12.8632  -23.3281    0.0671 C   0  0
   19.1681  -16.8069   -0.5343 C   0  0
   14.2830  -19.6508   -1.4577 C   0  0
   11.8460  -23.9328    0.6733 C   0  0
   17.0709  -16.8507    0.7428 C   0  0
   12.8500  -18.7164    0.2881 C   0  0
   12.5596  -22.5450   -1.1813 C   0  0
   15.9039  -21.7736    1.7604 H   0  0
   15.1906  -22.7076   -1.0978 H   0  0
   16.7534  -23.8966    1.2933 H   0  0
   17.8063  -22.9201   -1.4162 H   0  0
   16.7319  -20.7269   -0.9720 H   0  0
   16.3660  -18.8813    0.6889 H   0  0
   17.5028  -19.6952    1.7910 H   0  0
   17.2746  -25.2791   -1.2023 H   0  0
   19.1031  -24.7254   -0.5771 H   0  0
   15.0128  -28.0381   -0.4483 H   0  0
   16.7668  -27.8144   -0.6495 H   0  0
   15.6445  -27.2134   -1.8932 H   0  0
   20.3169  -22.2272    0.3535 H   0  0
   24.3451  -24.9578   -0.1369 H   0  0
   26.6077  -23.7917   -0.1672 H   0  0
   26.7317  -21.3775   -0.1338 H   0  0
   25.6103  -19.1326   -0.0548 H   0  0
   23.6003  -17.7862    0.0391 H   0  0
   21.3115  -18.9172    0.0757 H   0  0
   21.1502  -21.3294    0.0383 H   0  0
   19.9967  -17.2934   -1.0490 H   0  0
   19.1002  -15.7192   -0.5175 H   0  0
   15.0891  -20.2958   -1.8074 H   0  0
   13.7731  -18.9880   -2.1568 H   0  0
   12.0324  -24.6054    1.5105 H   0  0
   10.8257  -23.7559    0.3330 H   0  0
   17.1864  -15.7707    0.6528 H   0  0
   17.0410  -17.1258    1.7971 H   0  0
   16.1424  -17.1576    0.2612 H   0  0
   12.4775  -18.1470   -0.5634 H   0  0
   13.2677  -18.0326    1.0271 H   0  0
   12.0299  -19.2778    0.7359 H   0  0
   11.4803  -22.4905   -1.3230 H   0  0
   13.0138  -23.0391   -2.0402 H   0  0
   12.9644  -21.5374   -1.0862 H   0  0
  1  2  1  0
  2  3  1  0
  3  4  1  0
  4  5  1  0
  5  6  1  0
  6  1  1  0
  6  7  1  0
  2  8  1  0
  1  9  1  0
  3 10  1  0
  4 11  1  0
  7 12  1  0
 10 13  1  0
 13 14  2  0
 13 15  1  0
 11 16  1  0
 16 17  1  0
 17 18  1  0
 17 19  2  0
 17 20  2  0
 18 21  2  0
 21 22  1  0
 22 23  2  0
 23 24  1  0
 24 25  2  0
 25 18  1  0
 24 26  1  0
 26 27  2  0
 27 28  1  0
 28 29  2  0
 29 25  1  0
 12 30  1  0
  9 31  1  0
  8 32  1  0
 30 33  2  0
 31 34  2  0
 32 35  2  0
 30 36  1  0
 31 37  1  0
 32 38  1  0
  1 39  1  0
  2 40  1  0
  3 41  1  0
  4 42  1  0
  6 43  1  0
  7 44  1  0
  7 45  1  0
 10 46  1  0
 11 47  1  0
 15 48  1  0
 15 49  1  0
 15 50  1  0
 16 51  1  0
 21 52  1  0
 22 53  1  0
 23 54  1  0
 26 55  1  0
 27 56  1  0
 28 57  1  0
 29 58  1  0
 33 59  1  0
 33 60  1  0
 34 61  1  0
 34 62  1  0
 35 63  1  0
 35 64  1  0
 36 65  1  0
 36 66  1  0
 36 67  1  0
 37 68  1  0
 37 69  1  0
 37 70  1  0
 38 71  1  0
 38 72  1  0
 38 73  1  0
M  END
> <Name>
3f Kiss et al., 2022

> <Clean Energy>
36.3563232421875

> <Reference>
Kiss et al., 2022

> <Forcefield>
MMFF

> <ForcefieldBase>
MMFF

> <ForcefieldFFML>
<?xml version="1.0" encoding="UTF-8"?>
<!DOCTYPE ffml SYSTEM "Ffml.dtd">
<ffml version="1.0">
<forcefield name="3f Kiss et al., 2022-MMFF" derivedFrom="MMFF" base="MMFF">
<atomTypes>
<atomType
 name="C100"
 element="C"
 mass="12.011"
 annotation=""/>
<atomType
 name="O101"
 element="O"
 mass="16"
 annotation=""/>
<atomType
 name="N102"
 element="N"
 mass="14.007"
 annotation=""/>
<atomType
 name="S103"
 element="S"
 mass="32.066"
 annotation=""/>
<atomType
 name="H104"
 element="H"
 mass="1.008"
 annotation=""/>
</atomTypes>
<parameters>
</parameters>
</forcefield>
</ffml>

$$$$
GlcNcstatin
  SciTegic07212313593D

 54 56  0  0  0  0            999 V2000
   20.2264  -26.5658    0.2897 C   0  0  1  0  0  0
   20.1161  -27.9713   -0.2976 C   0  0  1  0  0  0
   21.2717  -28.8506    0.3304 C   0  0  2  0  0  0
   22.5914  -28.1358    0.1728 C   0  0
   22.6714  -26.7761    0.0234 N   0  0
   21.5496  -25.9404   -0.2439 C   0  0  2  0  0  0
   21.7788  -24.5211    0.3126 C   0  0
   18.8483  -28.5263    0.0376 O   0  0
   21.3278  -30.2290   -0.1723 N   0  0
   19.1397  -25.7533   -0.1534 O   0  0
   23.7616  -28.6411    0.2133 N   0  0
   24.6680  -27.5404    0.0663 C   0  0
   23.9918  -26.3986   -0.0493 C   0  0
   26.1825  -27.6377    0.0544 C   0  0
   26.7961  -26.2095   -0.0444 C   0  0
   28.3131  -26.2412   -0.0351 C   0  0
   28.9706  -27.4001    0.0096 C   0  0
   30.4397  -27.4124    0.0211 C   0  0
   31.1186  -26.2663   -0.0112 C   0  0
   30.3990  -24.9917   -0.0594 C   0  0
   29.0663  -24.9788   -0.0715 C   0  0
   20.3183  -31.1047   -0.0149 C   0  0
   19.2834  -30.7861    0.5766 O   0  0
   20.4249  -32.4936   -0.5694 C   0  0
   19.3105  -33.4097   -0.0275 C   0  0
   21.8366  -33.0773   -0.3945 C   0  0
   20.6789  -23.6764   -0.0346 O   0  0
   20.2433  -26.6122    1.3785 H   0  0
   20.2282  -27.9305   -1.3810 H   0  0
   21.0735  -28.9135    1.4004 H   0  0
   21.4568  -25.8553   -1.3266 H   0  0
   21.8684  -24.5691    1.3978 H   0  0
   22.6960  -24.1114   -0.1105 H   0  0
   18.7520  -28.5746    1.0821 H   0  0
   22.2094  -30.5511   -0.6860 H   0  0
   19.1557  -25.6875   -1.2012 H   0  0
   24.3938  -25.3931   -0.1734 H   0  0
   26.5226  -28.1160    0.9729 H   0  0
   26.5013  -28.2297   -0.8036 H   0  0
   26.4596  -25.7452   -0.9714 H   0  0
   26.4513  -25.6189    0.8044 H   0  0
   28.4179  -28.3392    0.0376 H   0  0
   30.9754  -28.3610    0.0561 H   0  0
   32.2085  -26.2775   -0.0017 H   0  0
   30.9534  -24.0535   -0.0853 H   0  0
   28.5327  -24.0290   -0.1084 H   0  0
   20.2583  -32.4092   -1.6432 H   0  0
   19.4213  -34.4075   -0.4520 H   0  0
   18.3381  -33.0031   -0.3054 H   0  0
   19.3829  -33.4674    1.0585 H   0  0
   21.8680  -34.0844   -0.8102 H   0  0
   22.0861  -33.1147    0.6660 H   0  0
   22.5579  -32.4473   -0.9150 H   0  0
   20.5909  -23.6273   -1.0798 H   0  0
  1  2  1  0
  2  3  1  0
  3  4  1  0
  4  5  1  0
  5  6  1  0
  6  1  1  0
  6  7  1  0
  2  8  1  0
  3  9  1  0
  1 10  1  0
  4 11  2  0
 11 12  1  0
 12 13  2  0
 13  5  1  0
 12 14  1  0
 14 15  1  0
 15 16  1  0
 16 17  2  0
 17 18  1  0
 18 19  2  0
 19 20  1  0
 20 21  2  0
 21 16  1  0
  9 22  1  0
 22 23  2  0
 22 24  1  0
 24 25  1  0
 24 26  1  0
  7 27  1  0
  1 28  1  0
  2 29  1  0
  3 30  1  0
  6 31  1  0
  7 32  1  0
  7 33  1  0
  8 34  1  0
  9 35  1  0
 10 36  1  0
 13 37  1  0
 14 38  1  0
 14 39  1  0
 15 40  1  0
 15 41  1  0
 17 42  1  0
 18 43  1  0
 19 44  1  0
 20 45  1  0
 21 46  1  0
 24 47  1  0
 25 48  1  0
 25 49  1  0
 25 50  1  0
 26 51  1  0
 26 52  1  0
 26 53  1  0
 27 54  1  0
M  END
> <Name>
GlcNcstatin

> <Clean Energy>
47.9561042785645

> <Reference>
Macauley & Vocadlo, 2010

> <Ki>
4nM

> <Forcefield>
MMFF

> <ForcefieldBase>
MMFF

> <ForcefieldFFML>
<?xml version="1.0" encoding="UTF-8"?>
<!DOCTYPE ffml SYSTEM "Ffml.dtd">
<ffml version="1.0">
<forcefield name="GlcNcstatin-MMFF" derivedFrom="MMFF" base="MMFF">
<atomTypes>
<atomType
 name="C100"
 element="C"
 mass="12.011"
 annotation=""/>
<atomType
 name="N101"
 element="N"
 mass="14.007"
 annotation=""/>
<atomType
 name="O102"
 element="O"
 mass="16"
 annotation=""/>
<atomType
 name="H103"
 element="H"
 mass="1.008"
 annotation=""/>
</atomTypes>
<parameters>
</parameters>
</forcefield>
</ffml>

$$$$
Acetamido-epi-valienamine
  SciTegic07212313593D

 27 27  0  0  0  0            999 V2000
   20.7302  -23.9526    0.1895 C   0  0  1  0  0  0
   20.6514  -25.3890   -0.3892 C   0  0  1  0  0  0
   21.7642  -26.1978    0.3061 C   0  0  2  0  0  0
   23.0974  -25.5896   -0.1913 C   0  0  1  0  0  0
   23.1893  -24.0967   -0.0349 C   0  0
   22.0989  -23.3412    0.0935 C   0  0
   24.2473  -26.2455    0.4441 N   0  0
   21.8184  -27.6091   -0.0711 N   0  0
   19.3425  -25.8783   -0.1037 O   0  0
   19.7575  -23.1016   -0.4197 O   0  0
   20.8302  -28.4954    0.0716 C   0  0
   19.7348  -28.1749    0.5511 O   0  0
   21.0555  -29.9147   -0.3585 C   0  0
   20.4812  -24.0187    1.2486 H   0  0
   20.8183  -25.3696   -1.4662 H   0  0
   21.6838  -26.0984    1.3886 H   0  0
   23.1627  -25.8006   -1.2587 H   0  0
   24.1703  -23.6217   -0.0263 H   0  0
   22.2025  -22.2567    0.1296 H   0  0
   24.2385  -27.2892    0.2081 H   0  0
   24.1889  -26.1197    1.5051 H   0  0
   22.7323  -27.9637   -0.5001 H   0  0
   19.1905  -25.8869    0.9352 H   0  0
   19.9295  -23.0574   -1.4546 H   0  0
   20.1539  -30.4984   -0.1732 H   0  0
   21.8850  -30.3390    0.2071 H   0  0
   21.2914  -29.9393   -1.4225 H   0  0
  1  2  1  0
  2  3  1  0
  3  4  1  0
  4  5  1  0
  5  6  2  0
  6  1  1  0
  4  7  1  0
  3  8  1  0
  2  9  1  0
  1 10  1  0
  8 11  1  0
 11 12  2  0
 11 13  1  0
  1 14  1  0
  2 15  1  0
  3 16  1  0
  4 17  1  0
  5 18  1  0
  6 19  1  0
  7 20  1  0
  7 21  1  0
  8 22  1  0
  9 23  1  0
 10 24  1  0
 13 25  1  0
 13 26  1  0
 13 27  1  0
M  END
> <Name>
Acetamido-epi-valienamine

> <Clean Energy>
20.7898368835449

> <Ki>
6.2µM

> <Reference>
Macauley & Vocadlo, 2010

> <Forcefield>
MMFF

> <ForcefieldBase>
MMFF

> <ForcefieldFFML>
<?xml version="1.0" encoding="UTF-8"?>
<!DOCTYPE ffml SYSTEM "Ffml.dtd">
<ffml version="1.0">
<forcefield name="Acetamido-epi-valienamine-MMFF" derivedFrom="MMFF" base="MMFF">
<atomTypes>
<atomType
 name="C100"
 element="C"
 mass="12.011"
 annotation=""/>
<atomType
 name="N101"
 element="N"
 mass="14.007"
 annotation=""/>
<atomType
 name="O102"
 element="O"
 mass="16"
 annotation=""/>
<atomType
 name="H103"
 element="H"
 mass="1.008"
 annotation=""/>
</atomTypes>
<parameters>
</parameters>
</forcefield>
</ffml>

$$$$
3a Velueta-Viveros et al., 2022
  SciTegic07212313593D

 52 52  0  0  0  0            999 V2000
   13.5172  -17.6911    0.7359 C   0  0  1  0  0  0
   13.1353  -19.0812    0.0512 C   0  0  1  0  0  0
   14.3519  -20.0331    0.3345 C   0  0  2  0  0  0
   15.6879  -19.4202   -0.2501 C   0  0  1  0  0  0
   15.8846  -18.1002    0.2644 O   0  0
   14.8023  -17.1687    0.0618 C   0  0  2  0  0  0
   15.1947  -15.8114    0.6541 C   0  0
   11.9495  -19.6464    0.6494 O   0  0
   16.8993  -20.1683    0.1901 O   0  0
   12.4660  -16.6371    0.7986 O   0  0
   14.1781  -21.3749   -0.2241 N   0  0
   16.3099  -15.2717   -0.0648 O   0  0
   11.9798  -15.9274   -0.3130 C   0  0
   12.3757  -16.1252   -1.4550 O   0  0
   10.9420  -14.8599   -0.0395 C   0  0
   10.6407  -19.3145    0.1369 C   0  0
   10.4104  -18.6102   -1.1847 C   0  0
    9.6558  -19.7485    0.7286 O   0  0
   17.2864  -21.4599   -0.3038 C   0  0
   13.2518  -22.4127    0.0833 C   0  0
   13.4413  -23.6689   -0.4893 N   0  0
   16.3051  -13.8610    0.0160 C   0  0
   17.1874  -13.2119   -0.5565 O   0  0
   15.2080  -13.1256    0.7555 C   0  0
   18.2699  -21.9980    0.2141 O   0  0
   16.6386  -22.1508   -1.4779 C   0  0
   11.9177  -22.2016    1.1055 Se  0  0
   12.5291  -24.7430   -0.2326 C   0  0
   13.7836  -17.9203    1.7677 H   0  0
   12.9954  -18.9513   -1.0219 H   0  0
   14.4654  -20.1270    1.4145 H   0  0
   15.6410  -19.3932   -1.3387 H   0  0
   14.6242  -17.0544   -1.0075 H   0  0
   14.3502  -15.1263    0.5789 H   0  0
   15.4674  -15.9392    1.7016 H   0  0
   14.8704  -21.6201   -1.0022 H   0  0
   10.6498  -14.3878   -0.9774 H   0  0
   11.3607  -14.1085    0.6300 H   0  0
   10.0672  -15.3138    0.4262 H   0  0
    9.3405  -18.4753   -1.3435 H   0  0
   10.8244  -19.2112   -1.9943 H   0  0
   10.9003  -17.6366   -1.1683 H   0  0
   14.2816  -23.8337   -1.1309 H   0  0
   15.3881  -12.0521    0.6999 H   0  0
   15.2000  -13.4385    1.7996 H   0  0
   14.2447  -13.3559    0.3002 H   0  0
   17.1190  -23.1152   -1.6429 H   0  0
   16.7487  -21.5334   -2.3694 H   0  0
   15.5794  -22.3039   -1.2709 H   0  0
   12.8543  -25.6332   -0.7710 H   0  0
   11.5310  -24.4607   -0.5678 H   0  0
   12.5067  -24.9537    0.8367 H   0  0
  1  2  1  0
  2  3  1  0
  3  4  1  0
  4  5  1  0
  5  6  1  0
  6  1  1  0
  6  7  1  0
  2  8  1  0
  4  9  1  0
  1 10  1  0
  3 11  1  0
  7 12  1  0
 10 13  1  0
 13 14  2  0
 13 15  1  0
  8 16  1  0
 16 17  1  0
 16 18  2  0
  9 19  1  0
 11 20  1  0
 20 21  1  0
 12 22  1  0
 22 23  2  0
 22 24  1  0
 19 25  2  0
 19 26  1  0
 20 27  2  0
 21 28  1  0
  1 29  1  0
  2 30  1  0
  3 31  1  0
  4 32  1  0
  6 33  1  0
  7 34  1  0
  7 35  1  0
 11 36  1  0
 15 37  1  0
 15 38  1  0
 15 39  1  0
 17 40  1  0
 17 41  1  0
 17 42  1  0
 21 43  1  0
 24 44  1  0
 24 45  1  0
 24 46  1  0
 26 47  1  0
 26 48  1  0
 26 49  1  0
 28 50  1  0
 28 51  1  0
 28 52  1  0
M  END
> <Name>
3a Velueta-Viveros et al., 2022

> <Clean Energy>
38.9061813354492

> <Reference>
Velueta-Viveros et al., 2022

> <Forcefield>
MMFF

> <ForcefieldBase>
MMFF

> <ForcefieldFFML>
<?xml version="1.0" encoding="UTF-8"?>
<!DOCTYPE ffml SYSTEM "Ffml.dtd">
<ffml version="1.0">
<forcefield name="3a Velueta-Viveros et al., 2022-MMFF" derivedFrom="MMFF" base="MMFF">
<atomTypes>
<atomType
 name="C100"
 element="C"
 mass="12.011"
 annotation=""/>
<atomType
 name="O101"
 element="O"
 mass="16"
 annotation=""/>
<atomType
 name="N102"
 element="N"
 mass="14.007"
 annotation=""/>
<atomType
 name="Se103"
 element="Se"
 mass="78.96"
 annotation=""/>
<atomType
 name="H104"
 element="H"
 mass="1.008"
 annotation=""/>
</atomTypes>
<parameters>
</parameters>
</forcefield>
</ffml>

$$$$
3b Velueta-Viveros et al., 2022
  SciTegic07212313593D

 55 55  0  0  0  0            999 V2000
   20.8005  -16.7410    0.7317 C   0  0  1  0  0  0
   20.4066  -18.1301    0.0608 C   0  0  1  0  0  0
   21.5989  -19.1017    0.3607 C   0  0  2  0  0  0
   22.9505  -18.5079   -0.2499 C   0  0  1  0  0  0
   23.1620  -17.1815    0.2558 O   0  0
   22.0932  -16.2399    0.0523 C   0  0  2  0  0  0
   22.4930  -14.8825    0.6419 C   0  0
   19.2072  -18.6542    0.6775 O   0  0
   24.1577  -19.2581    0.1891 O   0  0
   19.7650  -15.6766    0.7890 O   0  0
   21.4193  -20.4671   -0.1839 N   0  0
   23.6110  -14.3456   -0.0722 O   0  0
   19.2816  -14.9739   -0.3294 C   0  0
   19.6729  -15.1841   -1.4679 O   0  0
   18.2498  -13.8980   -0.0617 C   0  0
   17.9028  -18.3096    0.1560 C   0  0
   17.6839  -17.6414   -1.1875 C   0  0
   16.9113  -18.7074    0.7604 O   0  0
   24.5296  -20.5548   -0.3010 C   0  0
   20.4069  -21.4628    0.1360 C   0  0
   20.6144  -22.7646   -0.3609 N   0  0
   23.6050  -12.9342    0.0109 C   0  0
   24.4896  -12.2837   -0.5564 O   0  0
   22.5038  -12.1999    0.7466 C   0  0
   25.5169  -21.0956    0.2069 O   0  0
   23.8600  -21.2482   -1.4607 C   0  0
   19.0552  -21.1853    1.0388 Se  0  0
   19.6091  -23.7639   -0.0933 C   0  0
   20.1886  -25.1706   -0.3369 C   0  0
   21.0656  -16.9651    1.7649 H   0  0
   20.2669  -18.0125   -1.0138 H   0  0
   21.7157  -19.1769    1.4418 H   0  0
   22.8947  -18.4902   -1.3384 H   0  0
   21.9147  -16.1269   -1.0170 H   0  0
   21.6516  -14.1940    0.5643 H   0  0
   22.7629  -15.0105    1.6902 H   0  0
   22.1377  -20.7648   -0.9189 H   0  0
   17.9580  -13.4314   -1.0025 H   0  0
   18.6742  -13.1438    0.6010 H   0  0
   17.3736  -14.3434    0.4095 H   0  0
   16.6167  -17.4886   -1.3484 H   0  0
   18.0828  -18.2761   -1.9789 H   0  0
   18.1945  -16.6785   -1.2025 H   0  0
   21.4935  -23.0055   -0.9214 H   0  0
   22.6839  -11.1263    0.6934 H   0  0
   22.4909  -12.5144    1.7902 H   0  0
   21.5428  -12.4298    0.2864 H   0  0
   24.3313  -22.2169   -1.6268 H   0  0
   23.9610  -20.6371   -2.3576 H   0  0
   22.8030  -21.3927   -1.2372 H   0  0
   19.2853  -23.6815    0.9442 H   0  0
   18.7570  -23.6049   -0.7542 H   0  0
   19.4235  -25.9196   -0.1328 H   0  0
   21.0404  -25.3326    0.3236 H   0  0
   20.5123  -25.2561   -1.3743 H   0  0
  1  2  1  0
  2  3  1  0
  3  4  1  0
  4  5  1  0
  5  6  1  0
  6  1  1  0
  6  7  1  0
  2  8  1  0
  4  9  1  0
  1 10  1  0
  3 11  1  0
  7 12  1  0
 10 13  1  0
 13 14  2  0
 13 15  1  0
  8 16  1  0
 16 17  1  0
 16 18  2  0
  9 19  1  0
 11 20  1  0
 20 21  1  0
 12 22  1  0
 22 23  2  0
 22 24  1  0
 19 25  2  0
 19 26  1  0
 20 27  2  0
 21 28  1  0
 28 29  1  0
  1 30  1  0
  2 31  1  0
  3 32  1  0
  4 33  1  0
  6 34  1  0
  7 35  1  0
  7 36  1  0
 11 37  1  0
 15 38  1  0
 15 39  1  0
 15 40  1  0
 17 41  1  0
 17 42  1  0
 17 43  1  0
 21 44  1  0
 24 45  1  0
 24 46  1  0
 24 47  1  0
 26 48  1  0
 26 49  1  0
 26 50  1  0
 28 51  1  0
 28 52  1  0
 29 53  1  0
 29 54  1  0
 29 55  1  0
M  END
> <Name>
3b Velueta-Viveros et al., 2022

> <Clean Energy>
39.882698059082

> <Reference>
Velueta-Viveros et al., 2022

> <Forcefield>
MMFF

> <ForcefieldBase>
MMFF

> <ForcefieldFFML>
<?xml version="1.0" encoding="UTF-8"?>
<!DOCTYPE ffml SYSTEM "Ffml.dtd">
<ffml version="1.0">
<forcefield name="3b Velueta-Viveros et al., 2022-MMFF" derivedFrom="MMFF" base="MMFF">
<atomTypes>
<atomType
 name="C100"
 element="C"
 mass="12.011"
 annotation=""/>
<atomType
 name="O101"
 element="O"
 mass="16"
 annotation=""/>
<atomType
 name="N102"
 element="N"
 mass="14.007"
 annotation=""/>
<atomType
 name="Se103"
 element="Se"
 mass="78.96"
 annotation=""/>
<atomType
 name="H104"
 element="H"
 mass="1.008"
 annotation=""/>
</atomTypes>
<parameters>
</parameters>
</forcefield>
</ffml>

$$$$
3c Velueta-Viveros et al., 2022
  SciTegic07212313593D

 58 58  0  0  0  0            999 V2000
   20.7044  -17.0113    0.7387 C   0  0  1  0  0  0
   20.2941  -18.3887    0.0417 C   0  0  1  0  0  0
   21.4920  -19.3708    0.3625 C   0  0  2  0  0  0
   22.8390  -18.7843   -0.2568 C   0  0  1  0  0  0
   23.0597  -17.4580    0.2565 O   0  0
   21.9884  -16.5089    0.0426 C   0  0  2  0  0  0
   22.3961  -15.1567    0.6449 C   0  0
   19.0962  -18.9090    0.6694 O   0  0
   24.0476  -19.5372    0.1916 O   0  0
   19.6668  -15.9395    0.7806 O   0  0
   21.2874  -20.7372   -0.1802 N   0  0
   23.5158  -14.6192   -0.0656 O   0  0
   19.1803  -15.2275   -0.3193 C   0  0
   19.5733  -15.4369   -1.4717 O   0  0
   18.1557  -14.1527   -0.0523 C   0  0
   17.7985  -18.5560    0.1340 C   0  0
   17.5827  -17.8915   -1.2069 C   0  0
   16.7976  -18.9527    0.7413 O   0  0
   24.4114  -20.8363   -0.2945 C   0  0
   20.2835  -21.7193    0.1517 C   0  0
   20.4041  -23.0161   -0.3502 N   0  0
   23.5041  -13.2075    0.0136 C   0  0
   24.3900  -12.5553   -0.5498 O   0  0
   22.3953  -12.4749    0.7400 C   0  0
   25.4003  -21.3788    0.2175 O   0  0
   23.7396  -21.5345   -1.4473 C   0  0
   18.9502  -21.4102    1.1231 Se  0  0
   19.3290  -23.9400   -0.1038 C   0  0
   19.7785  -25.3943   -0.3077 C   0  0
   18.5697  -26.3229   -0.0681 C   0  0
   20.9689  -17.2412    1.7708 H   0  0
   20.1582  -18.2653   -1.0327 H   0  0
   21.6066  -19.4391    1.4443 H   0  0
   22.7825  -18.7674   -1.3452 H   0  0
   21.8064  -16.3951   -1.0261 H   0  0
   21.5580  -14.4634    0.5743 H   0  0
   22.6664  -15.2953    1.6917 H   0  0
   21.9890  -21.0391   -0.9295 H   0  0
   17.8673  -13.6833   -0.9927 H   0  0
   18.5815  -13.4013    0.6127 H   0  0
   17.2771  -14.5960    0.4164 H   0  0
   16.5160  -17.7361   -1.3686 H   0  0
   17.9803  -18.5286   -1.9969 H   0  0
   18.0959  -16.9300   -1.2233 H   0  0
   21.2709  -23.3145   -0.9022 H   0  0
   22.5720  -11.4007    0.6849 H   0  0
   22.3767  -12.7864    1.7844 H   0  0
   21.4382  -12.7094    0.2742 H   0  0
   24.2085  -22.5053   -1.6079 H   0  0
   23.8409  -20.9292   -2.3482 H   0  0
   22.6826  -21.6752   -1.2215 H   0  0
   18.9845  -23.8165    0.9229 H   0  0
   18.5110  -23.7226   -0.7906 H   0  0
   20.1458  -25.5255   -1.3255 H   0  0
   20.5722  -25.6355    0.3995 H   0  0
   18.8739  -27.3599   -0.2094 H   0  0
   17.7770  -26.0778   -0.7749 H   0  0
   18.2032  -26.1877    0.9495 H   0  0
  1  2  1  0
  2  3  1  0
  3  4  1  0
  4  5  1  0
  5  6  1  0
  6  1  1  0
  6  7  1  0
  2  8  1  0
  4  9  1  0
  1 10  1  0
  3 11  1  0
  7 12  1  0
 10 13  1  0
 13 14  2  0
 13 15  1  0
  8 16  1  0
 16 17  1  0
 16 18  2  0
  9 19  1  0
 11 20  1  0
 20 21  1  0
 12 22  1  0
 22 23  2  0
 22 24  1  0
 19 25  2  0
 19 26  1  0
 20 27  2  0
 21 28  1  0
 28 29  1  0
 29 30  1  0
  1 31  1  0
  2 32  1  0
  3 33  1  0
  4 34  1  0
  6 35  1  0
  7 36  1  0
  7 37  1  0
 11 38  1  0
 15 39  1  0
 15 40  1  0
 15 41  1  0
 17 42  1  0
 17 43  1  0
 17 44  1  0
 21 45  1  0
 24 46  1  0
 24 47  1  0
 24 48  1  0
 26 49  1  0
 26 50  1  0
 26 51  1  0
 28 52  1  0
 28 53  1  0
 29 54  1  0
 29 55  1  0
 30 56  1  0
 30 57  1  0
 30 58  1  0
M  END
> <Name>
3c Velueta-Viveros et al., 2022

> <Clean Energy>
40.3050308227539

> <Reference>
Velueta-Viveros et al., 2022

> <Forcefield>
MMFF

> <ForcefieldBase>
MMFF

> <ForcefieldFFML>
<?xml version="1.0" encoding="UTF-8"?>
<!DOCTYPE ffml SYSTEM "Ffml.dtd">
<ffml version="1.0">
<forcefield name="3c Velueta-Viveros et al., 2022-MMFF" derivedFrom="MMFF" base="MMFF">
<atomTypes>
<atomType
 name="C100"
 element="C"
 mass="12.011"
 annotation=""/>
<atomType
 name="O101"
 element="O"
 mass="16"
 annotation=""/>
<atomType
 name="N102"
 element="N"
 mass="14.007"
 annotation=""/>
<atomType
 name="Se103"
 element="Se"
 mass="78.96"
 annotation=""/>
<atomType
 name="H104"
 element="H"
 mass="1.008"
 annotation=""/>
</atomTypes>
<parameters>
</parameters>
</forcefield>
</ffml>

$$$$
4a Velueta-Viveros et al., 2022
  SciTegic07212313593D

 51 51  0  0  0  0            999 V2000
   20.8645  -16.5066    0.7590 C   0  0  1  0  0  0
   20.4906  -17.8821    0.0200 C   0  0  1  0  0  0
   21.7011  -18.8369    0.3464 C   0  0  2  0  0  0
   23.0403  -18.2195   -0.2632 C   0  0  1  0  0  0
   23.2350  -16.9015    0.2793 O   0  0
   22.1458  -15.9703    0.0600 C   0  0  2  0  0  0
   22.5391  -14.6152    0.6689 C   0  0
   19.3029  -18.4710    0.6415 O   0  0
   24.2550  -18.9660    0.1916 O   0  0
   19.8090  -15.4504    0.7892 O   0  0
   21.5374  -20.1723   -0.2579 N   0  0
   23.6550  -14.0763   -0.0522 O   0  0
   19.3247  -14.7371   -0.3084 C   0  0
   19.7380  -14.9376   -1.4621 O   0  0
   18.2870  -13.6757   -0.0551 C   0  0
   17.9991  -18.1362    0.1182 C   0  0
   17.7600  -17.4237   -1.1887 C   0  0
   17.0086  -18.5900    0.7119 O   0  0
   24.6415  -20.2541   -0.3133 C   0  0
   20.6009  -21.2090    0.0825 C   0  0
   20.7841  -22.4504   -0.5536 O   0  0
   23.6507  -12.6655    0.0246 C   0  0
   24.5337  -12.0189   -0.5507 O   0  0
   22.5548  -11.9270    0.7617 C   0  0
   25.6302  -20.7936    0.2077 O   0  0
   24.0004  -20.9430   -1.4877 C   0  0
   19.3439  -21.0222    1.1519 Se  0  0
   19.7743  -23.3712   -0.1270 C   0  0
   21.1246  -16.7446    1.7904 H   0  0
   20.3607  -17.7439   -1.0534 H   0  0
   21.8051  -18.9365    1.4269 H   0  0
   22.9910  -18.1867   -1.3516 H   0  0
   21.9647  -15.8574   -1.0089 H   0  0
   21.6960  -13.9277    0.6014 H   0  0
   22.8139  -14.7524    1.7148 H   0  0
   22.2078  -20.4012   -1.0599 H   0  0
   18.0072  -13.2080   -0.9990 H   0  0
   18.6953  -12.9208    0.6169 H   0  0
   17.4065  -14.1290    0.4003 H   0  0
   16.6885  -17.2969   -1.3432 H   0  0
   18.1771  -18.0125   -2.0058 H   0  0
   18.2412  -16.4460   -1.1635 H   0  0
   22.7358  -10.8538    0.7026 H   0  0
   22.5467  -12.2365    1.8068 H   0  0
   21.5912  -12.1578    0.3073 H   0  0
   24.4857  -21.9046   -1.6548 H   0  0
   24.1090  -20.3225   -2.3773 H   0  0
   22.9416  -21.1017   -1.2829 H   0  0
   19.9229  -24.3299   -0.6237 H   0  0
   18.7910  -22.9777   -0.3845 H   0  0
   19.8392  -23.5079    0.9525 H   0  0
  1  2  1  0
  2  3  1  0
  3  4  1  0
  4  5  1  0
  5  6  1  0
  6  1  1  0
  6  7  1  0
  2  8  1  0
  4  9  1  0
  1 10  1  0
  3 11  1  0
  7 12  1  0
 10 13  1  0
 13 14  2  0
 13 15  1  0
  8 16  1  0
 16 17  1  0
 16 18  2  0
  9 19  1  0
 11 20  1  0
 20 21  1  0
 12 22  1  0
 22 23  2  0
 22 24  1  0
 19 25  2  0
 19 26  1  0
 20 27  2  0
 21 28  1  0
  1 29  1  0
  2 30  1  0
  3 31  1  0
  4 32  1  0
  6 33  1  0
  7 34  1  0
  7 35  1  0
 11 36  1  0
 15 37  1  0
 15 38  1  0
 15 39  1  0
 17 40  1  0
 17 41  1  0
 17 42  1  0
 24 43  1  0
 24 44  1  0
 24 45  1  0
 26 46  1  0
 26 47  1  0
 26 48  1  0
 28 49  1  0
 28 50  1  0
 28 51  1  0
M  END
> <Name>
4a Velueta-Viveros et al., 2022

> <Clean Energy>
38.1260452270508

> <Reference>
Velueta-Viveros et al., 2022

> <Forcefield>
MMFF

> <ForcefieldBase>
MMFF

> <ForcefieldFFML>
<?xml version="1.0" encoding="UTF-8"?>
<!DOCTYPE ffml SYSTEM "Ffml.dtd">
<ffml version="1.0">
<forcefield name="4a Velueta-Viveros et al., 2022-MMFF" derivedFrom="MMFF" base="MMFF">
<atomTypes>
<atomType
 name="C100"
 element="C"
 mass="12.011"
 annotation=""/>
<atomType
 name="O101"
 element="O"
 mass="16"
 annotation=""/>
<atomType
 name="N102"
 element="N"
 mass="14.007"
 annotation=""/>
<atomType
 name="Se103"
 element="Se"
 mass="78.96"
 annotation=""/>
<atomType
 name="H104"
 element="H"
 mass="1.008"
 annotation=""/>
</atomTypes>
<parameters>
</parameters>
</forcefield>
</ffml>

$$$$
4b Velueta-Viveros et al., 2022
  SciTegic07212313593D

 54 54  0  0  0  0            999 V2000
   20.7997  -16.7607    0.7514 C   0  0  1  0  0  0
   20.4093  -18.1351    0.0218 C   0  0  1  0  0  0
   21.6100  -19.1024    0.3584 C   0  0  2  0  0  0
   22.9546  -18.5011   -0.2666 C   0  0  1  0  0  0
   23.1628  -17.1782    0.2655 O   0  0
   22.0808  -16.2386    0.0449 C   0  0  2  0  0  0
   22.4819  -14.8847    0.6529 C   0  0
   19.2160  -18.6959    0.6536 O   0  0
   24.1674  -19.2498    0.1879 O   0  0
   19.7524  -15.6964    0.7807 O   0  0
   21.4275  -20.4535   -0.2221 N   0  0
   23.5992  -14.3464   -0.0643 O   0  0
   19.2635  -14.9835   -0.3126 C   0  0
   19.6669  -15.1889   -1.4700 O   0  0
   18.2331  -13.9171   -0.0534 C   0  0
   17.9173  -18.3528    0.1189 C   0  0
   17.6894  -17.6636   -1.2032 C   0  0
   16.9192  -18.7821    0.7197 O   0  0
   24.5404  -20.5428   -0.3112 C   0  0
   20.4728  -21.4720    0.1553 C   0  0
   20.6699  -22.7560   -0.3843 O   0  0
   23.5932  -12.9353    0.0171 C   0  0
   24.4776  -12.2857   -0.5525 O   0  0
   22.4934  -12.1999    0.7527 C   0  0
   25.5312  -21.0849    0.2036 O   0  0
   23.8825  -21.2348   -1.4741 C   0  0
   19.1863  -21.2224    1.1722 Se  0  0
   19.6364  -23.6325    0.0886 C   0  0
   19.8948  -25.0622   -0.4264 C   0  0
   21.0623  -16.9959    1.7828 H   0  0
   20.2792  -18.0044   -1.0525 H   0  0
   21.7177  -19.1839    1.4400 H   0  0
   22.8991  -18.4769   -1.3549 H   0  0
   21.8971  -16.1269   -1.0237 H   0  0
   21.6413  -14.1941    0.5856 H   0  0
   22.7556  -15.0240    1.6987 H   0  0
   22.0877  -20.7087   -1.0245 H   0  0
   17.9482  -13.4496   -0.9959 H   0  0
   18.6500  -13.1629    0.6141 H   0  0
   17.3540  -14.3654    0.4096 H   0  0
   16.6199  -17.5253   -1.3618 H   0  0
   18.0993  -18.2746   -2.0074 H   0  0
   18.1839  -16.6923   -1.1972 H   0  0
   22.6737  -11.1264    0.6978 H   0  0
   22.4816  -12.5129    1.7967 H   0  0
   21.5318  -12.4302    0.2938 H   0  0
   24.3594  -22.2007   -1.6398 H   0  0
   23.9859  -20.6208   -2.3687 H   0  0
   22.8249  -21.3849   -1.2571 H   0  0
   19.6336  -23.6348    1.1786 H   0  0
   18.6704  -23.2845   -0.2771 H   0  0
   19.1091  -25.7262   -0.0663 H   0  0
   20.8606  -25.4115   -0.0612 H   0  0
   19.8977  -25.0613   -1.5164 H   0  0
  1  2  1  0
  2  3  1  0
  3  4  1  0
  4  5  1  0
  5  6  1  0
  6  1  1  0
  6  7  1  0
  2  8  1  0
  4  9  1  0
  1 10  1  0
  3 11  1  0
  7 12  1  0
 10 13  1  0
 13 14  2  0
 13 15  1  0
  8 16  1  0
 16 17  1  0
 16 18  2  0
  9 19  1  0
 11 20  1  0
 20 21  1  0
 12 22  1  0
 22 23  2  0
 22 24  1  0
 19 25  2  0
 19 26  1  0
 20 27  2  0
 21 28  1  0
 28 29  1  0
  1 30  1  0
  2 31  1  0
  3 32  1  0
  4 33  1  0
  6 34  1  0
  7 35  1  0
  7 36  1  0
 11 37  1  0
 15 38  1  0
 15 39  1  0
 15 40  1  0
 17 41  1  0
 17 42  1  0
 17 43  1  0
 24 44  1  0
 24 45  1  0
 24 46  1  0
 26 47  1  0
 26 48  1  0
 26 49  1  0
 28 50  1  0
 28 51  1  0
 29 52  1  0
 29 53  1  0
 29 54  1  0
M  END
> <Name>
4b Velueta-Viveros et al., 2022

> <Clean Energy>
38.5259017944336

> <Reference>
Velueta-Viveros et al., 2022

> <Forcefield>
MMFF

> <ForcefieldBase>
MMFF

> <ForcefieldFFML>
<?xml version="1.0" encoding="UTF-8"?>
<!DOCTYPE ffml SYSTEM "Ffml.dtd">
<ffml version="1.0">
<forcefield name="4b Velueta-Viveros et al., 2022-MMFF" derivedFrom="MMFF" base="MMFF">
<atomTypes>
<atomType
 name="C100"
 element="C"
 mass="12.011"
 annotation=""/>
<atomType
 name="O101"
 element="O"
 mass="16"
 annotation=""/>
<atomType
 name="N102"
 element="N"
 mass="14.007"
 annotation=""/>
<atomType
 name="Se103"
 element="Se"
 mass="78.96"
 annotation=""/>
<atomType
 name="H104"
 element="H"
 mass="1.008"
 annotation=""/>
</atomTypes>
<parameters>
</parameters>
</forcefield>
</ffml>

$$$$
4c Velueta-Viveros et al., 2022
  SciTegic07212313593D

 57 57  0  0  0  0            999 V2000
   20.6912  -17.0323    0.7486 C   0  0  1  0  0  0
   20.2996  -18.4047    0.0169 C   0  0  1  0  0  0
   21.4992  -19.3756    0.3591 C   0  0  2  0  0  0
   22.8450  -18.7770   -0.2661 C   0  0  1  0  0  0
   23.0545  -17.4541    0.2666 O   0  0
   21.9746  -16.5122    0.0456 C   0  0  2  0  0  0
   22.3772  -15.1606    0.6573 C   0  0
   19.1030  -18.9613    0.6450 O   0  0
   24.0560  -19.5272    0.1888 O   0  0
   19.6460  -15.9656    0.7775 O   0  0
   21.3131  -20.7293   -0.2156 N   0  0
   23.4975  -14.6241   -0.0559 O   0  0
   19.1606  -15.2483   -0.3140 C   0  0
   19.5660  -15.4507   -1.4714 O   0  0
   18.1321  -14.1804   -0.0531 C   0  0
   17.8065  -18.6153    0.1060 C   0  0
   17.5837  -17.9238   -1.2158 C   0  0
   16.8057  -19.0440    0.7031 O   0  0
   24.4258  -20.8200   -0.3127 C   0  0
   20.3483  -21.7354    0.1717 C   0  0
   20.5050  -23.0189   -0.3803 O   0  0
   23.4911  -13.2130    0.0216 C   0  0
   24.3783  -12.5650   -0.5453 O   0  0
   22.3874  -12.4755    0.7495 C   0  0
   25.4154  -21.3655    0.2010 O   0  0
   23.7658  -21.5082   -1.4769 C   0  0
   19.0824  -21.4687    1.2086 Se  0  0
   19.4373  -23.8523    0.0952 C   0  0
   19.5935  -25.2814   -0.4547 C   0  0
   18.3889  -26.1301   -0.0020 C   0  0
   20.9514  -17.2694    1.7802 H   0  0
   20.1737  -18.2734   -1.0578 H   0  0
   21.6054  -19.4528    1.4411 H   0  0
   22.7899  -18.7527   -1.3544 H   0  0
   21.7932  -16.3978   -1.0232 H   0  0
   21.5386  -14.4676    0.5891 H   0  0
   22.6478  -15.3025    1.7036 H   0  0
   21.9732  -20.9949   -1.0147 H   0  0
   17.8498  -13.7094   -0.9946 H   0  0
   18.5497  -13.4293    0.6175 H   0  0
   17.2513  -14.6283    0.4071 H   0  0
   16.5149  -17.7839   -1.3775 H   0  0
   17.9954  -18.5340   -2.0197 H   0  0
   18.0793  -16.9530   -1.2066 H   0  0
   22.5680  -11.4022    0.6926 H   0  0
   22.3703  -12.7856    1.7944 H   0  0
   21.4282  -12.7071    0.2864 H   0  0
   24.2403  -22.4750   -1.6446 H   0  0
   23.8706  -20.8927   -2.3704 H   0  0
   22.7078  -21.6560   -1.2601 H   0  0
   19.4611  -23.8811    1.1846 H   0  0
   18.4842  -23.4409   -0.2371 H   0  0
   19.6302  -25.2515   -1.5437 H   0  0
   20.5144  -25.7212   -0.0716 H   0  0
   18.4927  -27.1441   -0.3879 H   0  0
   17.4686  -25.6887   -0.3846 H   0  0
   18.3525  -26.1584    1.0871 H   0  0
  1  2  1  0
  2  3  1  0
  3  4  1  0
  4  5  1  0
  5  6  1  0
  6  1  1  0
  6  7  1  0
  2  8  1  0
  4  9  1  0
  1 10  1  0
  3 11  1  0
  7 12  1  0
 10 13  1  0
 13 14  2  0
 13 15  1  0
  8 16  1  0
 16 17  1  0
 16 18  2  0
  9 19  1  0
 11 20  1  0
 20 21  1  0
 12 22  1  0
 22 23  2  0
 22 24  1  0
 19 25  2  0
 19 26  1  0
 20 27  2  0
 21 28  1  0
 28 29  1  0
 29 30  1  0
  1 31  1  0
  2 32  1  0
  3 33  1  0
  4 34  1  0
  6 35  1  0
  7 36  1  0
  7 37  1  0
 11 38  1  0
 15 39  1  0
 15 40  1  0
 15 41  1  0
 17 42  1  0
 17 43  1  0
 17 44  1  0
 24 45  1  0
 24 46  1  0
 24 47  1  0
 26 48  1  0
 26 49  1  0
 26 50  1  0
 28 51  1  0
 28 52  1  0
 29 53  1  0
 29 54  1  0
 30 55  1  0
 30 56  1  0
 30 57  1  0
M  END
> <Name>
4c Velueta-Viveros et al., 2022

> <Clean Energy>
38.2513046264648

> <Reference>
Velueta-Viveros et al., 2022

> <Forcefield>
MMFF

> <ForcefieldBase>
MMFF

> <ForcefieldFFML>
<?xml version="1.0" encoding="UTF-8"?>
<!DOCTYPE ffml SYSTEM "Ffml.dtd">
<ffml version="1.0">
<forcefield name="4c Velueta-Viveros et al., 2022-MMFF" derivedFrom="MMFF" base="MMFF">
<atomTypes>
<atomType
 name="C100"
 element="C"
 mass="12.011"
 annotation=""/>
<atomType
 name="O101"
 element="O"
 mass="16"
 annotation=""/>
<atomType
 name="N102"
 element="N"
 mass="14.007"
 annotation=""/>
<atomType
 name="Se103"
 element="Se"
 mass="78.96"
 annotation=""/>
<atomType
 name="H104"
 element="H"
 mass="1.008"
 annotation=""/>
</atomTypes>
<parameters>
</parameters>
</forcefield>
</ffml>

$$$$
5a Velueta-Viveros et al., 2022
  SciTegic07212313593D

 44 45  0  0  0  0            999 V2000
   21.2172  -15.7750    0.7258 C   0  0  1  0  0  0
   20.9510  -17.2108    0.0393 C   0  0  1  0  0  0
   22.2838  -17.9439    0.2790 C   0  0  2  0  0  0
   23.4362  -17.2196   -0.4068 C   0  0  1  0  0  0
   23.6179  -15.9082    0.0837 O   0  0
   22.4223  -15.0990   -0.0265 C   0  0  2  0  0  0
   22.7292  -13.7309    0.5756 C   0  0
   19.8939  -17.9757    0.7043 O   0  0
   20.0695  -14.8343    0.8366 O   0  0
   23.7739  -13.1240   -0.1858 O   0  0
   19.4882  -14.1648   -0.2530 C   0  0
   19.8798  -14.3140   -1.4096 O   0  0
   18.3703  -13.1953    0.0478 C   0  0
   18.5229  -17.7920    0.2685 C   0  0
   18.1239  -17.0195   -0.9715 C   0  0
   17.6334  -18.4023    0.8649 O   0  0
   23.7671  -11.7315   -0.0125 C   0  0
   24.6017  -11.0410   -0.6068 O   0  0
   22.7266  -11.0582    0.8537 C   0  0
   22.3928  -19.3929   -0.0921 N   0  0
   23.6122  -19.7920   -0.1897 C   0  0
   24.8397  -18.4024    0.0415 Se  0  0
   23.9973  -21.1106   -0.4397 N   0  0
   25.3912  -21.4657   -0.3762 C   0  0
   21.5566  -15.9738    1.7424 H   0  0
   20.7476  -17.1047   -1.0263 H   0  0
   22.4782  -17.8856    1.3500 H   0  0
   23.2847  -17.2030   -1.4861 H   0  0
   22.1662  -14.9786   -1.0791 H   0  0
   21.8374  -13.1053    0.5398 H   0  0
   23.0498  -13.8486    1.6107 H   0  0
   18.0144  -12.7506   -0.8815 H   0  0
   18.7377  -12.4099    0.7084 H   0  0
   17.5507  -13.7245    0.5340 H   0  0
   17.0388  -17.0308   -1.0737 H   0  0
   18.5759  -17.4816   -1.8492 H   0  0
   18.4694  -15.9893   -0.8852 H   0  0
   22.8963   -9.9816    0.8557 H   0  0
   22.7997  -11.4390    1.8725 H   0  0
   21.7328  -11.2681    0.4582 H   0  0
   23.2624  -21.8513   -0.6767 H   0  0
   25.5067  -22.5268   -0.5971 H   0  0
   25.7740  -21.2595    0.6234 H   0  0
   25.9496  -20.8802   -1.1066 H   0  0
  1  2  1  0
  2  3  1  0
  3  4  1  0
  4  5  1  0
  5  6  1  0
  6  1  1  0
  6  7  1  0
  2  8  1  0
  1  9  1  0
  7 10  1  0
  9 11  1  0
 11 12  2  0
 11 13  1  0
  8 14  1  0
 14 15  1  0
 14 16  2  0
 10 17  1  0
 17 18  2  0
 17 19  1  0
  3 20  1  0
 20 21  2  0
 21 22  1  0
 22  4  1  0
 21 23  1  0
 23 24  1  0
  1 25  1  0
  2 26  1  0
  3 27  1  0
  4 28  1  0
  6 29  1  0
  7 30  1  0
  7 31  1  0
 13 32  1  0
 13 33  1  0
 13 34  1  0
 15 35  1  0
 15 36  1  0
 15 37  1  0
 19 38  1  0
 19 39  1  0
 19 40  1  0
 23 41  1  0
 24 42  1  0
 24 43  1  0
 24 44  1  0
M  END
> <Name>
5a Velueta-Viveros et al., 2022

> <Clean Energy>
43.8197860717773

> <Reference>
Velueta-Viveros et al., 2022

> <Forcefield>
MMFF

> <ForcefieldBase>
MMFF

> <ForcefieldFFML>
<?xml version="1.0" encoding="UTF-8"?>
<!DOCTYPE ffml SYSTEM "Ffml.dtd">
<ffml version="1.0">
<forcefield name="5a Velueta-Viveros et al., 2022-MMFF" derivedFrom="MMFF" base="MMFF">
<atomTypes>
<atomType
 name="C100"
 element="C"
 mass="12.011"
 annotation=""/>
<atomType
 name="O101"
 element="O"
 mass="16"
 annotation=""/>
<atomType
 name="N102"
 element="N"
 mass="14.007"
 annotation=""/>
<atomType
 name="Se103"
 element="Se"
 mass="78.96"
 annotation=""/>
<atomType
 name="H104"
 element="H"
 mass="1.008"
 annotation=""/>
</atomTypes>
<parameters>
</parameters>
</forcefield>
</ffml>

$$$$
5b Velueta-Viveros et al., 2022
  SciTegic07212313593D

 47 48  0  0  0  0            999 V2000
   21.4393  -16.0400    0.7271 C   0  0  1  0  0  0
   21.2013  -17.4829    0.0310 C   0  0  1  0  0  0
   22.5609  -18.1850    0.2895 C   0  0  2  0  0  0
   23.6938  -17.4293   -0.3954 C   0  0  1  0  0  0
   23.8372  -16.1148    0.0890 O   0  0
   22.6247  -15.3360   -0.0340 C   0  0  2  0  0  0
   22.9091  -13.9625    0.5680 C   0  0
   20.1594  -18.2684    0.7045 O   0  0
   20.2696  -15.1193    0.8208 O   0  0
   23.9489  -13.3471   -0.1945 O   0  0
   19.6783  -14.4562   -0.2593 C   0  0
   20.0825  -14.5982   -1.4253 O   0  0
   18.5466  -13.5074    0.0306 C   0  0
   18.7867  -18.1009    0.2632 C   0  0
   18.3743  -17.3389   -0.9751 C   0  0
   17.9017  -18.7256    0.8647 O   0  0
   23.9414  -11.9569   -0.0127 C   0  0
   24.7729  -11.2622   -0.6066 O   0  0
   22.9049  -11.2905    0.8627 C   0  0
   22.7248  -19.6407   -0.0638 N   0  0
   23.9692  -19.9896   -0.1396 C   0  0
   25.1296  -18.5516    0.0842 Se  0  0
   24.4299  -21.2897   -0.3547 N   0  0
   25.8543  -21.5269   -0.2631 C   0  0
   26.1537  -23.0371   -0.2472 C   0  0
   21.7801  -16.2285    1.7451 H   0  0
   20.9996  -17.3833   -1.0356 H   0  0
   22.7459  -18.1079    1.3609 H   0  0
   23.5540  -17.4263   -1.4764 H   0  0
   22.3673  -15.2261   -1.0874 H   0  0
   22.0093  -13.3487    0.5275 H   0  0
   23.2279  -14.0730    1.6045 H   0  0
   18.1907  -13.0699   -0.9021 H   0  0
   18.8965  -12.7153    0.6926 H   0  0
   17.7320  -14.0489    0.5114 H   0  0
   17.2893  -17.3667   -1.0750 H   0  0
   18.8312  -17.7963   -1.8528 H   0  0
   18.7046  -16.3034   -0.8921 H   0  0
   23.0733  -10.2137    0.8705 H   0  0
   22.9836  -11.6774    1.8787 H   0  0
   21.9093  -11.4991    0.4710 H   0  0
   23.7512  -22.0856   -0.5801 H   0  0
   26.3485  -21.0732   -1.1221 H   0  0
   26.2337  -21.0772    0.6545 H   0  0
   27.2301  -23.1938   -0.1780 H   0  0
   25.7791  -23.4920   -1.1642 H   0  0
   25.6643  -23.4961    0.6118 H   0  0
  1  2  1  0
  2  3  1  0
  3  4  1  0
  4  5  1  0
  5  6  1  0
  6  1  1  0
  6  7  1  0
  2  8  1  0
  1  9  1  0
  7 10  1  0
  9 11  1  0
 11 12  2  0
 11 13  1  0
  8 14  1  0
 14 15  1  0
 14 16  2  0
 10 17  1  0
 17 18  2  0
 17 19  1  0
  3 20  1  0
 20 21  2  0
 21 22  1  0
 22  4  1  0
 21 23  1  0
 23 24  1  0
 24 25  1  0
  1 26  1  0
  2 27  1  0
  3 28  1  0
  4 29  1  0
  6 30  1  0
  7 31  1  0
  7 32  1  0
 13 33  1  0
 13 34  1  0
 13 35  1  0
 15 36  1  0
 15 37  1  0
 15 38  1  0
 19 39  1  0
 19 40  1  0
 19 41  1  0
 23 42  1  0
 24 43  1  0
 24 44  1  0
 25 45  1  0
 25 46  1  0
 25 47  1  0
M  END
> <Name>
5b Velueta-Viveros et al., 2022

> <Clean Energy>
44.5307846069336

> <Reference>
Velueta-Viveros et al., 2022

> <Forcefield>
MMFF

> <ForcefieldBase>
MMFF

> <ForcefieldFFML>
<?xml version="1.0" encoding="UTF-8"?>
<!DOCTYPE ffml SYSTEM "Ffml.dtd">
<ffml version="1.0">
<forcefield name="5b Velueta-Viveros et al., 2022-MMFF" derivedFrom="MMFF" base="MMFF">
<atomTypes>
<atomType
 name="C100"
 element="C"
 mass="12.011"
 annotation=""/>
<atomType
 name="O101"
 element="O"
 mass="16"
 annotation=""/>
<atomType
 name="N102"
 element="N"
 mass="14.007"
 annotation=""/>
<atomType
 name="Se103"
 element="Se"
 mass="78.96"
 annotation=""/>
<atomType
 name="H104"
 element="H"
 mass="1.008"
 annotation=""/>
</atomTypes>
<parameters>
</parameters>
</forcefield>
</ffml>

$$$$
5c Velueta-Viveros et al., 2022
  SciTegic07212313593D

 50 51  0  0  0  0            999 V2000
   21.6962  -16.2857    0.7248 C   0  0  1  0  0  0
   21.4752  -17.7325    0.0262 C   0  0  1  0  0  0
   22.8458  -18.4192    0.2871 C   0  0  2  0  0  0
   23.9683  -17.6451   -0.3947 C   0  0  1  0  0  0
   24.0929  -16.3307    0.0895 O   0  0
   22.8741  -15.5676   -0.0340 C   0  0  2  0  0  0
   23.1458  -14.1922    0.5684 C   0  0
   20.4394  -18.5278    0.6977 O   0  0
   20.5176  -15.3759    0.8201 O   0  0
   24.1815  -13.5697   -0.1943 O   0  0
   19.9218  -14.7118   -0.2576 C   0  0
   20.3288  -14.8430   -1.4236 O   0  0
   18.7824  -13.7735    0.0368 C   0  0
   19.0650  -18.3674    0.2574 C   0  0
   18.6476  -17.6046   -0.9790 C   0  0
   18.1837  -18.9983    0.8576 O   0  0
   24.1669  -12.1801   -0.0115 C   0  0
   24.9945  -11.4807   -0.6056 O   0  0
   23.1278  -11.5200    0.8652 C   0  0
   23.0393  -19.8766   -0.0654 N   0  0
   24.2924  -20.1986   -0.1342 C   0  0
   25.4194  -18.7376    0.0937 Se  0  0
   24.7978  -21.4835   -0.3452 N   0  0
   26.2345  -21.6445   -0.2404 C   0  0
   26.6449  -23.1272   -0.2055 C   0  0
   28.1812  -23.2177   -0.0602 C   0  0
   22.0389  -16.4718    1.7427 H   0  0
   21.2743  -17.6343   -1.0406 H   0  0
   23.0276  -18.3384    1.3588 H   0  0
   23.8337  -17.6453   -1.4764 H   0  0
   22.6167  -15.4596   -1.0877 H   0  0
   22.2411  -13.5856    0.5268 H   0  0
   23.4644  -14.2996    1.6052 H   0  0
   18.4235  -13.3338   -0.8938 H   0  0
   19.1256  -12.9822    0.7033 H   0  0
   17.9717  -14.3240    0.5142 H   0  0
   17.5627  -17.6386   -1.0786 H   0  0
   19.1070  -18.0568   -1.8580 H   0  0
   18.9717  -16.5674   -0.8933 H   0  0
   23.2906  -10.4423    0.8738 H   0  0
   23.2095  -11.9074    1.8808 H   0  0
   22.1330  -11.7336    0.4741 H   0  0
   24.1558  -22.3086   -0.5731 H   0  0
   26.7059  -21.1687   -1.1003 H   0  0
   26.5770  -21.1625    0.6753 H   0  0
   26.1677  -23.6190    0.6422 H   0  0
   26.3356  -23.6143   -1.1302 H   0  0
   28.4831  -24.2647   -0.0343 H   0  0
   28.4887  -22.7285    0.8641 H   0  0
   28.6566  -22.7238   -0.9077 H   0  0
  1  2  1  0
  2  3  1  0
  3  4  1  0
  4  5  1  0
  5  6  1  0
  6  1  1  0
  6  7  1  0
  2  8  1  0
  1  9  1  0
  7 10  1  0
  9 11  1  0
 11 12  2  0
 11 13  1  0
  8 14  1  0
 14 15  1  0
 14 16  2  0
 10 17  1  0
 17 18  2  0
 17 19  1  0
  3 20  1  0
 20 21  2  0
 21 22  1  0
 22  4  1  0
 21 23  1  0
 23 24  1  0
 24 25  1  0
 25 26  1  0
  1 27  1  0
  2 28  1  0
  3 29  1  0
  4 30  1  0
  6 31  1  0
  7 32  1  0
  7 33  1  0
 13 34  1  0
 13 35  1  0
 13 36  1  0
 15 37  1  0
 15 38  1  0
 15 39  1  0
 19 40  1  0
 19 41  1  0
 19 42  1  0
 23 43  1  0
 24 44  1  0
 24 45  1  0
 25 46  1  0
 25 47  1  0
 26 48  1  0
 26 49  1  0
 26 50  1  0
M  END
> <Name>
5c Velueta-Viveros et al., 2022

> <Clean Energy>
45.1085891723633

> <Reference>
Velueta-Viveros et al., 2022

> <Forcefield>
MMFF

> <ForcefieldBase>
MMFF

> <ForcefieldFFML>
<?xml version="1.0" encoding="UTF-8"?>
<!DOCTYPE ffml SYSTEM "Ffml.dtd">
<ffml version="1.0">
<forcefield name="5c Velueta-Viveros et al., 2022-MMFF" derivedFrom="MMFF" base="MMFF">
<atomTypes>
<atomType
 name="C100"
 element="C"
 mass="12.011"
 annotation=""/>
<atomType
 name="O101"
 element="O"
 mass="16"
 annotation=""/>
<atomType
 name="N102"
 element="N"
 mass="14.007"
 annotation=""/>
<atomType
 name="Se103"
 element="Se"
 mass="78.96"
 annotation=""/>
<atomType
 name="H104"
 element="H"
 mass="1.008"
 annotation=""/>
</atomTypes>
<parameters>
</parameters>
</forcefield>
</ffml>

$$$$
6a Velueta-Viveros et al., 2022
  SciTegic07212313593D

 43 44  0  0  0  0            999 V2000
   21.2219  -15.7830    0.7288 C   0  0  1  0  0  0
   20.9466  -17.2144    0.0354 C   0  0  1  0  0  0
   22.2766  -17.9547    0.2802 C   0  0  2  0  0  0
   23.4343  -17.2373   -0.4034 C   0  0  1  0  0  0
   23.6216  -15.9257    0.0868 O   0  0
   22.4272  -15.1101   -0.0282 C   0  0  2  0  0  0
   22.7394  -13.7435    0.5769 C   0  0
   19.8884  -17.9777    0.7040 O   0  0
   20.0761  -14.8374    0.8337 O   0  0
   23.7857  -13.1380   -0.1836 O   0  0
   19.4954  -14.1650   -0.2498 C   0  0
   19.8886  -14.3165   -1.4121 O   0  0
   18.3820  -13.1933    0.0475 C   0  0
   18.5192  -17.7877    0.2668 C   0  0
   18.1205  -17.0152   -0.9711 C   0  0
   17.6266  -18.3976    0.8656 O   0  0
   23.7781  -11.7449   -0.0121 C   0  0
   24.6136  -11.0550   -0.6059 O   0  0
   22.7358  -11.0706    0.8511 C   0  0
   22.3753  -19.4036   -0.0904 N   0  0
   23.5939  -19.8126   -0.1805 C   0  0
   24.8286  -18.4295    0.0559 Se  0  0
   23.9640  -21.1323   -0.4287 O   0  0
   25.3956  -21.2335   -0.4144 C   0  0
   21.5598  -15.9840    1.7454 H   0  0
   20.7440  -17.1060   -1.0301 H   0  0
   22.4683  -17.8972    1.3517 H   0  0
   23.2876  -17.2221   -1.4833 H   0  0
   22.1714  -14.9897   -1.0809 H   0  0
   21.8495  -13.1148    0.5429 H   0  0
   23.0601  -13.8645    1.6116 H   0  0
   18.0293  -12.7484   -0.8829 H   0  0
   18.7507  -12.4084    0.7080 H   0  0
   17.5598  -13.7194    0.5326 H   0  0
   17.0352  -17.0236   -1.0714 H   0  0
   18.5697  -17.4785   -1.8495 H   0  0
   18.4689  -15.9859   -0.8855 H   0  0
   22.9052   -9.9939    0.8520 H   0  0
   22.8068  -11.4499    1.8705 H   0  0
   21.7428  -11.2813    0.4539 H   0  0
   25.6894  -22.2651   -0.6083 H   0  0
   25.7723  -20.9263    0.5613 H   0  0
   25.8139  -20.5862   -1.1852 H   0  0
  1  2  1  0
  2  3  1  0
  3  4  1  0
  4  5  1  0
  5  6  1  0
  6  1  1  0
  6  7  1  0
  2  8  1  0
  1  9  1  0
  7 10  1  0
  9 11  1  0
 11 12  2  0
 11 13  1  0
  8 14  1  0
 14 15  1  0
 14 16  2  0
 10 17  1  0
 17 18  2  0
 17 19  1  0
  3 20  1  0
 20 21  2  0
 21 22  1  0
 22  4  1  0
 21 23  1  0
 23 24  1  0
  1 25  1  0
  2 26  1  0
  3 27  1  0
  4 28  1  0
  6 29  1  0
  7 30  1  0
  7 31  1  0
 13 32  1  0
 13 33  1  0
 13 34  1  0
 15 35  1  0
 15 36  1  0
 15 37  1  0
 19 38  1  0
 19 39  1  0
 19 40  1  0
 24 41  1  0
 24 42  1  0
 24 43  1  0
M  END
> <Name>
6a Velueta-Viveros et al., 2022

> <Clean Energy>
43.7572174072266

> <Reference>
Velueta-Viveros et al., 2022

> <Forcefield>
MMFF

> <ForcefieldBase>
MMFF

> <ForcefieldFFML>
<?xml version="1.0" encoding="UTF-8"?>
<!DOCTYPE ffml SYSTEM "Ffml.dtd">
<ffml version="1.0">
<forcefield name="6a Velueta-Viveros et al., 2022-MMFF" derivedFrom="MMFF" base="MMFF">
<atomTypes>
<atomType
 name="C100"
 element="C"
 mass="12.011"
 annotation=""/>
<atomType
 name="O101"
 element="O"
 mass="16"
 annotation=""/>
<atomType
 name="N102"
 element="N"
 mass="14.007"
 annotation=""/>
<atomType
 name="Se103"
 element="Se"
 mass="78.96"
 annotation=""/>
<atomType
 name="H104"
 element="H"
 mass="1.008"
 annotation=""/>
</atomTypes>
<parameters>
</parameters>
</forcefield>
</ffml>

$$$$
6b Velueta-Viveros et al., 2022
  SciTegic07212313593D

 46 47  0  0  0  0            999 V2000
   21.4438  -16.0509    0.7251 C   0  0  1  0  0  0
   21.1898  -17.4894    0.0284 C   0  0  1  0  0  0
   22.5377  -18.2068    0.2882 C   0  0  2  0  0  0
   23.6850  -17.4691   -0.3913 C   0  0  1  0  0  0
   23.8427  -16.1539    0.0915 O   0  0
   22.6376  -15.3601   -0.0347 C   0  0  2  0  0  0
   22.9324  -13.9890    0.5687 C   0  0
   20.1399  -18.2640    0.7018 O   0  0
   20.2841  -15.1185    0.8203 O   0  0
   23.9763  -13.3770   -0.1904 O   0  0
   19.6966  -14.4498   -0.2576 C   0  0
   20.0963  -14.5955   -1.4246 O   0  0
   18.5746  -13.4907    0.0360 C   0  0
   18.7697  -18.0841    0.2598 C   0  0
   18.3653  -17.3195   -0.9795 C   0  0
   17.8787  -18.7001    0.8614 O   0  0
   23.9646  -11.9852   -0.0146 C   0  0
   24.7981  -11.2909   -0.6062 O   0  0
   22.9207  -11.3171    0.8512 C   0  0
   22.6798  -19.6639   -0.0603 N   0  0
   23.9155  -20.0360   -0.1217 C   0  0
   25.1000  -18.6142    0.1070 Se  0  0
   24.3472  -21.3449   -0.3234 O   0  0
   25.7867  -21.3505   -0.2599 C   0  0
   26.3237  -22.7928   -0.3059 C   0  0
   21.7824  -16.2443    1.7430 H   0  0
   20.9900  -17.3876   -1.0383 H   0  0
   22.7204  -18.1314    1.3602 H   0  0
   23.5541  -17.4683   -1.4734 H   0  0
   22.3832  -15.2479   -1.0887 H   0  0
   22.0366  -13.3692    0.5290 H   0  0
   23.2498  -14.1037    1.6052 H   0  0
   18.2202  -13.0492   -0.8954 H   0  0
   18.9336  -12.7023    0.6977 H   0  0
   17.7562  -14.0249    0.5188 H   0  0
   17.2801  -17.3371   -1.0800 H   0  0
   18.8184  -17.7820   -1.8564 H   0  0
   18.7052  -16.2871   -0.8972 H   0  0
   23.0868  -10.2399    0.8555 H   0  0
   22.9935  -11.6995    1.8693 H   0  0
   21.9282  -11.5296    0.4537 H   0  0
   26.1850  -20.7925   -1.1073 H   0  0
   26.1063  -20.8785    0.6691 H   0  0
   27.4124  -22.7775   -0.2569 H   0  0
   26.0090  -23.2688   -1.2347 H   0  0
   25.9303  -23.3547    0.5412 H   0  0
  1  2  1  0
  2  3  1  0
  3  4  1  0
  4  5  1  0
  5  6  1  0
  6  1  1  0
  6  7  1  0
  2  8  1  0
  1  9  1  0
  7 10  1  0
  9 11  1  0
 11 12  2  0
 11 13  1  0
  8 14  1  0
 14 15  1  0
 14 16  2  0
 10 17  1  0
 17 18  2  0
 17 19  1  0
  3 20  1  0
 20 21  2  0
 21 22  1  0
 22  4  1  0
 21 23  1  0
 23 24  1  0
 24 25  1  0
  1 26  1  0
  2 27  1  0
  3 28  1  0
  4 29  1  0
  6 30  1  0
  7 31  1  0
  7 32  1  0
 13 33  1  0
 13 34  1  0
 13 35  1  0
 15 36  1  0
 15 37  1  0
 15 38  1  0
 19 39  1  0
 19 40  1  0
 19 41  1  0
 24 42  1  0
 24 43  1  0
 25 44  1  0
 25 45  1  0
 25 46  1  0
M  END
> <Name>
6b Velueta-Viveros et al., 2022

> <Clean Energy>
44.5789451599121

> <Reference>
Velueta-Viveros et al., 2022

> <Forcefield>
MMFF

> <ForcefieldBase>
MMFF

> <ForcefieldFFML>
<?xml version="1.0" encoding="UTF-8"?>
<!DOCTYPE ffml SYSTEM "Ffml.dtd">
<ffml version="1.0">
<forcefield name="6b Velueta-Viveros et al., 2022-MMFF" derivedFrom="MMFF" base="MMFF">
<atomTypes>
<atomType
 name="C100"
 element="C"
 mass="12.011"
 annotation=""/>
<atomType
 name="O101"
 element="O"
 mass="16"
 annotation=""/>
<atomType
 name="N102"
 element="N"
 mass="14.007"
 annotation=""/>
<atomType
 name="Se103"
 element="Se"
 mass="78.96"
 annotation=""/>
<atomType
 name="H104"
 element="H"
 mass="1.008"
 annotation=""/>
</atomTypes>
<parameters>
</parameters>
</forcefield>
</ffml>

$$$$
6c Velueta-Viveros et al., 2022
  SciTegic07212313593D

 49 50  0  0  0  0            999 V2000
   21.7113  -16.3001    0.7229 C   0  0  1  0  0  0
   21.4675  -17.7409    0.0243 C   0  0  1  0  0  0
   22.8216  -18.4495    0.2839 C   0  0  2  0  0  0
   23.9642  -17.7018   -0.3920 C   0  0  1  0  0  0
   24.1103  -16.3852    0.0908 O   0  0
   22.8999  -15.6002   -0.0361 C   0  0  2  0  0  0
   23.1844  -14.2269    0.5681 C   0  0
   20.4221  -18.5217    0.6977 O   0  0
   20.5451  -15.3753    0.8196 O   0  0
   24.2232  -13.6058   -0.1910 O   0  0
   19.9528  -14.7073   -0.2563 C   0  0
   20.3531  -14.8469   -1.4237 O   0  0
   18.8247  -13.7561    0.0406 C   0  0
   19.0506  -18.3475    0.2571 C   0  0
   18.6417  -17.5842   -0.9816 C   0  0
   18.1627  -18.9673    0.8594 O   0  0
   24.1993  -12.2140   -0.0149 C   0  0
   25.0265  -11.5122   -0.6067 O   0  0
   23.1498  -11.5552    0.8512 C   0  0
   22.9791  -19.9083   -0.0650 N   0  0
   24.2197  -20.2676   -0.1186 C   0  0
   25.3864  -18.8328    0.1161 Se  0  0
   24.6742  -21.5717   -0.3152 O   0  0
   26.1139  -21.5403   -0.2252 C   0  0
   26.7062  -22.9621   -0.2399 C   0  0
   28.2408  -22.8730   -0.0859 C   0  0
   22.0515  -16.4923    1.7405 H   0  0
   21.2669  -17.6396   -1.0423 H   0  0
   23.0025  -18.3734    1.3561 H   0  0
   23.8386  -17.7034   -1.4748 H   0  0
   22.6453  -15.4896   -1.0901 H   0  0
   22.2838  -13.6142    0.5293 H   0  0
   23.5033  -14.3398    1.6043 H   0  0
   18.4670  -13.3144   -0.8894 H   0  0
   19.1790  -12.9673    0.7043 H   0  0
   18.0101  -14.2970    0.5223 H   0  0
   17.5565  -17.6064   -1.0810 H   0  0
   19.0959  -18.0446   -1.8591 H   0  0
   18.9774  -16.5504   -0.8994 H   0  0
   23.3064  -10.4765    0.8557 H   0  0
   23.2262  -11.9371    1.8693 H   0  0
   22.1591  -11.7763    0.4541 H   0  0
   26.5105  -20.9817   -1.0730 H   0  0
   26.4009  -21.0457    0.7027 H   0  0
   26.2897  -23.5392    0.5857 H   0  0
   26.4620  -23.4492   -1.1839 H   0  0
   28.6663  -23.8764   -0.0955 H   0  0
   28.4841  -22.3848    0.8578 H   0  0
   28.6563  -22.2948   -0.9113 H   0  0
  1  2  1  0
  2  3  1  0
  3  4  1  0
  4  5  1  0
  5  6  1  0
  6  1  1  0
  6  7  1  0
  2  8  1  0
  1  9  1  0
  7 10  1  0
  9 11  1  0
 11 12  2  0
 11 13  1  0
  8 14  1  0
 14 15  1  0
 14 16  2  0
 10 17  1  0
 17 18  2  0
 17 19  1  0
  3 20  1  0
 20 21  2  0
 21 22  1  0
 22  4  1  0
 21 23  1  0
 23 24  1  0
 24 25  1  0
 25 26  1  0
  1 27  1  0
  2 28  1  0
  3 29  1  0
  4 30  1  0
  6 31  1  0
  7 32  1  0
  7 33  1  0
 13 34  1  0
 13 35  1  0
 13 36  1  0
 15 37  1  0
 15 38  1  0
 15 39  1  0
 19 40  1  0
 19 41  1  0
 19 42  1  0
 24 43  1  0
 24 44  1  0
 25 45  1  0
 25 46  1  0
 26 47  1  0
 26 48  1  0
 26 49  1  0
M  END
> <Name>
6c Velueta-Viveros et al., 2022

> <Clean Energy>
44.8981056213379

> <Reference>
Velueta-Viveros et al., 2022

> <Forcefield>
MMFF

> <ForcefieldBase>
MMFF

> <ForcefieldFFML>
<?xml version="1.0" encoding="UTF-8"?>
<!DOCTYPE ffml SYSTEM "Ffml.dtd">
<ffml version="1.0">
<forcefield name="6c Velueta-Viveros et al., 2022-MMFF" derivedFrom="MMFF" base="MMFF">
<atomTypes>
<atomType
 name="C100"
 element="C"
 mass="12.011"
 annotation=""/>
<atomType
 name="O101"
 element="O"
 mass="16"
 annotation=""/>
<atomType
 name="N102"
 element="N"
 mass="14.007"
 annotation=""/>
<atomType
 name="Se103"
 element="Se"
 mass="78.96"
 annotation=""/>
<atomType
 name="H104"
 element="H"
 mass="1.008"
 annotation=""/>
</atomTypes>
<parameters>
</parameters>
</forcefield>
</ffml>

$$$$
7a Velueta-Viveros et al., 2022
  SciTegic07212313593D

 29 30  0  0  0  0            999 V2000
   21.8522  -17.4577    0.3252 C   0  0  1  0  0  0
   21.9327  -18.9184   -0.1627 C   0  0  1  0  0  0
   23.2215  -19.4956    0.3949 C   0  0  2  0  0  0
   24.3914  -18.6549   -0.1091 C   0  0  1  0  0  0
   24.3228  -17.2979    0.3410 O   0  0
   23.1090  -16.6831   -0.1769 C   0  0  2  0  0  0
   23.0336  -15.2264    0.3074 C   0  0
   20.8064  -19.6631    0.3033 O   0  0
   20.6676  -16.8454   -0.1869 O   0  0
   24.1803  -14.5128   -0.1585 O   0  0
   23.5207  -20.9083    0.0300 N   0  0
   24.7755  -21.1860    0.0677 C   0  0
   25.8310  -19.6960    0.5099 Se  0  0
   25.2979  -22.4485   -0.2130 N   0  0
   26.7147  -22.6649   -0.1572 C   0  0
   21.8271  -17.4404    1.4148 H   0  0
   21.9619  -18.9403   -1.2521 H   0  0
   23.1888  -19.4215    1.4819 H   0  0
   24.3905  -18.6659   -1.1991 H   0  0
   23.1323  -16.7005   -1.2665 H   0  0
   22.1302  -14.7590   -0.0846 H   0  0
   23.0103  -15.2060    1.3970 H   0  0
   20.7906  -19.6544    1.3532 H   0  0
   20.6904  -16.8613   -1.2365 H   0  0
   25.0505  -14.9632    0.2187 H   0  0
   24.6426  -23.2544   -0.4697 H   0  0
   26.9342  -23.7034   -0.4047 H   0  0
   27.0767  -22.4470    0.8476 H   0  0
   27.2114  -22.0088   -0.8721 H   0  0
  1  2  1  0
  2  3  1  0
  3  4  1  0
  4  5  1  0
  5  6  1  0
  6  1  1  0
  6  7  1  0
  2  8  1  0
  1  9  1  0
  7 10  1  0
  3 11  1  0
 11 12  2  0
 12 13  1  0
 13  4  1  0
 12 14  1  0
 14 15  1  0
  1 16  1  0
  2 17  1  0
  3 18  1  0
  4 19  1  0
  6 20  1  0
  7 21  1  0
  7 22  1  0
  8 23  1  0
  9 24  1  0
 10 25  1  0
 14 26  1  0
 15 27  1  0
 15 28  1  0
 15 29  1  0
M  END
> <Name>
7a Velueta-Viveros et al., 2022

> <Clean Energy>
20.6344623565674

> <Reference>
Velueta-Viveros et al., 2022

> <Forcefield>
MMFF

> <ForcefieldBase>
MMFF

> <ForcefieldFFML>
<?xml version="1.0" encoding="UTF-8"?>
<!DOCTYPE ffml SYSTEM "Ffml.dtd">
<ffml version="1.0">
<forcefield name="7a Velueta-Viveros et al., 2022-MMFF" derivedFrom="MMFF" base="MMFF">
<atomTypes>
<atomType
 name="C100"
 element="C"
 mass="12.011"
 annotation=""/>
<atomType
 name="O101"
 element="O"
 mass="16"
 annotation=""/>
<atomType
 name="N102"
 element="N"
 mass="14.007"
 annotation=""/>
<atomType
 name="Se103"
 element="Se"
 mass="78.96"
 annotation=""/>
<atomType
 name="H104"
 element="H"
 mass="1.008"
 annotation=""/>
</atomTypes>
<parameters>
</parameters>
</forcefield>
</ffml>

$$$$
7b Velueta-Viveros et al., 2022
  SciTegic07212313593D

 32 33  0  0  0  0            999 V2000
   22.1205  -17.8060    0.3104 C   0  0  1  0  0  0
   22.2498  -19.2672   -0.1659 C   0  0  1  0  0  0
   23.5509  -19.7993    0.4077 C   0  0  2  0  0  0
   24.6997  -18.9276   -0.0924 C   0  0  1  0  0  0
   24.5843  -17.5698    0.3456 O   0  0
   23.3571  -16.9965   -0.1867 C   0  0  2  0  0  0
   23.2331  -15.5397    0.2876 C   0  0
   21.1429  -20.0423    0.2975 O   0  0
   20.9219  -17.2337   -0.2150 O   0  0
   24.3619  -14.7945   -0.1726 O   0  0
   23.8987  -21.2066    0.0637 N   0  0
   25.1600  -21.4442    0.1205 C   0  0
   26.1633  -19.9166    0.5554 Se  0  0
   25.7266  -22.6928   -0.1308 N   0  0
   27.1475  -22.8624   -0.0412 C   0  0
   27.5015  -24.3466   -0.2426 C   0  0
   22.0860  -17.7819    1.3996 H   0  0
   22.2890  -19.2968   -1.2548 H   0  0
   23.5054  -19.7145    1.4934 H   0  0
   24.7122  -18.9486   -1.1821 H   0  0
   23.3902  -17.0201   -1.2759 H   0  0
   22.3196  -15.1024   -0.1154 H   0  0
   23.1994  -15.5133    1.3768 H   0  0
   21.1187  -20.0261    1.3471 H   0  0
   20.9534  -17.2563   -1.2643 H   0  0
   25.2419  -15.2161    0.2151 H   0  0
   25.1027  -23.5226   -0.3898 H   0  0
   27.6337  -22.2652   -0.8127 H   0  0
   27.4908  -22.5372    0.9409 H   0  0
   28.5816  -24.4755   -0.1745 H   0  0
   27.1584  -24.6725   -1.2246 H   0  0
   27.0155  -24.9444    0.5285 H   0  0
  1  2  1  0
  2  3  1  0
  3  4  1  0
  4  5  1  0
  5  6  1  0
  6  1  1  0
  6  7  1  0
  2  8  1  0
  1  9  1  0
  7 10  1  0
  3 11  1  0
 11 12  2  0
 12 13  1  0
 13  4  1  0
 12 14  1  0
 14 15  1  0
 15 16  1  0
  1 17  1  0
  2 18  1  0
  3 19  1  0
  4 20  1  0
  6 21  1  0
  7 22  1  0
  7 23  1  0
  8 24  1  0
  9 25  1  0
 10 26  1  0
 14 27  1  0
 15 28  1  0
 15 29  1  0
 16 30  1  0
 16 31  1  0
 16 32  1  0
M  END
> <Name>
7b Velueta-Viveros et al., 2022

> <Clean Energy>
20.4891300201416

> <Reference>
Velueta-Viveros et al., 2022

> <Forcefield>
MMFF

> <ForcefieldBase>
MMFF

> <ForcefieldFFML>
<?xml version="1.0" encoding="UTF-8"?>
<!DOCTYPE ffml SYSTEM "Ffml.dtd">
<ffml version="1.0">
<forcefield name="7b Velueta-Viveros et al., 2022-MMFF" derivedFrom="MMFF" base="MMFF">
<atomTypes>
<atomType
 name="C100"
 element="C"
 mass="12.011"
 annotation=""/>
<atomType
 name="O101"
 element="O"
 mass="16"
 annotation=""/>
<atomType
 name="N102"
 element="N"
 mass="14.007"
 annotation=""/>
<atomType
 name="Se103"
 element="Se"
 mass="78.96"
 annotation=""/>
<atomType
 name="H104"
 element="H"
 mass="1.008"
 annotation=""/>
</atomTypes>
<parameters>
</parameters>
</forcefield>
</ffml>

$$$$
7c Velueta-Viveros et al., 2022
  SciTegic07212313593D

 35 36  0  0  0  0            999 V2000
   22.4425  -18.1063    0.3071 C   0  0  1  0  0  0
   22.5982  -19.5652   -0.1709 C   0  0  1  0  0  0
   23.9076  -20.0750    0.4051 C   0  0  2  0  0  0
   25.0416  -19.1816   -0.0902 C   0  0  1  0  0  0
   24.9009  -17.8274    0.3484 O   0  0
   23.6664  -17.2753   -0.1865 C   0  0  2  0  0  0
   23.5182  -15.8212    0.2883 C   0  0
   21.5038  -20.3600    0.2891 O   0  0
   21.2355  -17.5540   -0.2202 O   0  0
   24.6368  -15.0589   -0.1692 O   0  0
   24.2840  -21.4760    0.0608 N   0  0
   25.5499  -21.6878    0.1234 C   0  0
   26.5199  -20.1416    0.5641 Se  0  0
   26.1471  -22.9214   -0.1247 N   0  0
   27.5709  -23.0493   -0.0168 C   0  0
   27.9754  -24.5219   -0.1957 C   0  0
   29.5043  -24.6495   -0.0644 C   0  0
   22.4053  -18.0842    1.3962 H   0  0
   22.6402  -19.5927   -1.2597 H   0  0
   23.8576  -19.9923    1.4909 H   0  0
   25.0593  -19.2018   -1.1799 H   0  0
   23.7027  -17.2978   -1.2757 H   0  0
   22.5991  -15.3979   -0.1168 H   0  0
   23.4814  -15.7959    1.3773 H   0  0
   21.4769  -20.3456    1.3387 H   0  0
   21.2697  -17.5747   -1.2695 H   0  0
   25.5222  -15.4671    0.2206 H   0  0
   25.5483  -23.7664   -0.3936 H   0  0
   28.0480  -22.4464   -0.7894 H   0  0
   27.8920  -22.7025    0.9655 H   0  0
   27.4925  -25.1277    0.5710 H   0  0
   27.6647  -24.8674   -1.1817 H   0  0
   29.7945  -25.6925   -0.1908 H   0  0
   29.8150  -24.3034    0.9214 H   0  0
   29.9872  -24.0432   -0.8308 H   0  0
  1  2  1  0
  2  3  1  0
  3  4  1  0
  4  5  1  0
  5  6  1  0
  6  1  1  0
  6  7  1  0
  2  8  1  0
  1  9  1  0
  7 10  1  0
  3 11  1  0
 11 12  2  0
 12 13  1  0
 13  4  1  0
 12 14  1  0
 14 15  1  0
 15 16  1  0
 16 17  1  0
  1 18  1  0
  2 19  1  0
  3 20  1  0
  4 21  1  0
  6 22  1  0
  7 23  1  0
  7 24  1  0
  8 25  1  0
  9 26  1  0
 10 27  1  0
 14 28  1  0
 15 29  1  0
 15 30  1  0
 16 31  1  0
 16 32  1  0
 17 33  1  0
 17 34  1  0
 17 35  1  0
M  END
> <Name>
7c Velueta-Viveros et al., 2022

> <Clean Energy>
20.3836994171143

> <Reference>
Velueta-Viveros et al., 2022

> <Forcefield>
MMFF

> <ForcefieldBase>
MMFF

> <ForcefieldFFML>
<?xml version="1.0" encoding="UTF-8"?>
<!DOCTYPE ffml SYSTEM "Ffml.dtd">
<ffml version="1.0">
<forcefield name="7c Velueta-Viveros et al., 2022-MMFF" derivedFrom="MMFF" base="MMFF">
<atomTypes>
<atomType
 name="C100"
 element="C"
 mass="12.011"
 annotation=""/>
<atomType
 name="O101"
 element="O"
 mass="16"
 annotation=""/>
<atomType
 name="N102"
 element="N"
 mass="14.007"
 annotation=""/>
<atomType
 name="Se103"
 element="Se"
 mass="78.96"
 annotation=""/>
<atomType
 name="H104"
 element="H"
 mass="1.008"
 annotation=""/>
</atomTypes>
<parameters>
</parameters>
</forcefield>
</ffml>

$$$$
8a Velueta-Viveros et al., 2022
  SciTegic07212313593D

 28 29  0  0  0  0            999 V2000
   21.8604  -17.4624    0.3287 C   0  0  1  0  0  0
   21.9303  -18.9226   -0.1623 C   0  0  1  0  0  0
   23.2167  -19.5094    0.3904 C   0  0  2  0  0  0
   24.3904  -18.6750   -0.1152 C   0  0  1  0  0  0
   24.3320  -17.3186    0.3380 O   0  0
   23.1209  -16.6950   -0.1752 C   0  0  2  0  0  0
   23.0563  -15.2387    0.3121 C   0  0
   20.8004  -19.6610    0.3051 O   0  0
   20.6784  -16.8414   -0.1790 O   0  0
   24.2064  -14.5318   -0.1557 O   0  0
   23.5056  -20.9232    0.0212 N   0  0
   24.7584  -21.2096    0.0525 C   0  0
   25.8253  -19.7269    0.4966 Se  0  0
   25.2682  -22.4729   -0.2304 O   0  0
   26.6932  -22.4513   -0.1169 C   0  0
   21.8384  -17.4472    1.4184 H   0  0
   21.9563  -18.9424   -1.2519 H   0  0
   23.1875  -19.4375    1.4776 H   0  0
   24.3861  -18.6835   -1.2052 H   0  0
   23.1411  -16.7104   -1.2649 H   0  0
   22.1549  -14.7647   -0.0766 H   0  0
   23.0361  -15.2203    1.4017 H   0  0
   20.7874  -19.6544    1.3551 H   0  0
   20.6984  -16.8554   -1.2287 H   0  0
   25.0747  -14.9887    0.2182 H   0  0
   27.0909  -23.4416   -0.3387 H   0  0
   26.9732  -22.1669    0.8975 H   0  0
   27.1036  -21.7291   -0.8227 H   0  0
  1  2  1  0
  2  3  1  0
  3  4  1  0
  4  5  1  0
  5  6  1  0
  6  1  1  0
  6  7  1  0
  2  8  1  0
  1  9  1  0
  7 10  1  0
  3 11  1  0
 11 12  2  0
 12 13  1  0
 13  4  1  0
 12 14  1  0
 14 15  1  0
  1 16  1  0
  2 17  1  0
  3 18  1  0
  4 19  1  0
  6 20  1  0
  7 21  1  0
  7 22  1  0
  8 23  1  0
  9 24  1  0
 10 25  1  0
 15 26  1  0
 15 27  1  0
 15 28  1  0
M  END
> <Name>
8a Velueta-Viveros et al., 2022

> <Clean Energy>
20.5986404418945

> <Reference>
Velueta-Viveros et al., 2022

> <Forcefield>
MMFF

> <ForcefieldBase>
MMFF

> <ForcefieldFFML>
<?xml version="1.0" encoding="UTF-8"?>
<!DOCTYPE ffml SYSTEM "Ffml.dtd">
<ffml version="1.0">
<forcefield name="8a Velueta-Viveros et al., 2022-MMFF" derivedFrom="MMFF" base="MMFF">
<atomTypes>
<atomType
 name="C100"
 element="C"
 mass="12.011"
 annotation=""/>
<atomType
 name="O101"
 element="O"
 mass="16"
 annotation=""/>
<atomType
 name="N102"
 element="N"
 mass="14.007"
 annotation=""/>
<atomType
 name="Se103"
 element="Se"
 mass="78.96"
 annotation=""/>
<atomType
 name="H104"
 element="H"
 mass="1.008"
 annotation=""/>
</atomTypes>
<parameters>
</parameters>
</forcefield>
</ffml>

$$$$
8b Velueta-Viveros et al., 2022
  SciTegic07212313593D

 31 32  0  0  0  0            999 V2000
   22.1344  -17.8036    0.3108 C   0  0  1  0  0  0
   22.2356  -19.2668   -0.1660 C   0  0  1  0  0  0
   23.5255  -19.8248    0.4082 C   0  0  2  0  0  0
   24.6912  -18.9751   -0.0905 C   0  0  1  0  0  0
   24.6024  -17.6155    0.3484 O   0  0
   23.3868  -17.0182   -0.1851 C   0  0  2  0  0  0
   23.2903  -15.5592    0.2891 C   0  0
   21.1135  -20.0205    0.2957 O   0  0
   20.9476  -17.2081   -0.2159 O   0  0
   24.4333  -14.8356   -0.1705 O   0  0
   23.8444  -21.2377    0.0606 N   0  0
   25.1014  -21.5011    0.1147 C   0  0
   26.1350  -19.9944    0.5550 Se  0  0
   25.6378  -22.7580   -0.1413 O   0  0
   27.0593  -22.7070   -0.0024 C   0  0
   27.6513  -24.1017   -0.2715 C   0  0
   22.0992  -17.7791    1.3999 H   0  0
   22.2752  -19.2964   -1.2549 H   0  0
   23.4811  -19.7411    1.4941 H   0  0
   24.7030  -18.9951   -1.1803 H   0  0
   23.4204  -17.0424   -1.2743 H   0  0
   22.3856  -15.1047   -0.1145 H   0  0
   23.2564  -15.5322    1.3782 H   0  0
   21.0884  -20.0044    1.3453 H   0  0
   20.9799  -17.2311   -1.2652 H   0  0
   25.3049  -15.2737    0.2178 H   0  0
   27.4688  -21.9943   -0.7183 H   0  0
   27.3144  -22.3932    1.0098 H   0  0
   28.7355  -24.0633   -0.1657 H   0  0
   27.3964  -24.4161   -1.2836 H   0  0
   27.2420  -24.8149    0.4440 H   0  0
  1  2  1  0
  2  3  1  0
  3  4  1  0
  4  5  1  0
  5  6  1  0
  6  1  1  0
  6  7  1  0
  2  8  1  0
  1  9  1  0
  7 10  1  0
  3 11  1  0
 11 12  2  0
 12 13  1  0
 13  4  1  0
 12 14  1  0
 14 15  1  0
 15 16  1  0
  1 17  1  0
  2 18  1  0
  3 19  1  0
  4 20  1  0
  6 21  1  0
  7 22  1  0
  7 23  1  0
  8 24  1  0
  9 25  1  0
 10 26  1  0
 15 27  1  0
 15 28  1  0
 16 29  1  0
 16 30  1  0
 16 31  1  0
M  END
> <Name>
8b Velueta-Viveros et al., 2022

> <Clean Energy>
20.3439502716064

> <Reference>
Velueta-Viveros et al., 2022

> <Forcefield>
MMFF

> <ForcefieldBase>
MMFF

> <ForcefieldFFML>
<?xml version="1.0" encoding="UTF-8"?>
<!DOCTYPE ffml SYSTEM "Ffml.dtd">
<ffml version="1.0">
<forcefield name="8b Velueta-Viveros et al., 2022-MMFF" derivedFrom="MMFF" base="MMFF">
<atomTypes>
<atomType
 name="C100"
 element="C"
 mass="12.011"
 annotation=""/>
<atomType
 name="O101"
 element="O"
 mass="16"
 annotation=""/>
<atomType
 name="N102"
 element="N"
 mass="14.007"
 annotation=""/>
<atomType
 name="Se103"
 element="Se"
 mass="78.96"
 annotation=""/>
<atomType
 name="H104"
 element="H"
 mass="1.008"
 annotation=""/>
</atomTypes>
<parameters>
</parameters>
</forcefield>
</ffml>

$$$$
8c Velueta-Viveros et al., 2022
  SciTegic07212313593D

 34 35  0  0  0  0            999 V2000
   22.4707  -18.1020    0.3080 C   0  0  1  0  0  0
   22.5847  -19.5639   -0.1697 C   0  0  1  0  0  0
   23.8783  -20.1112    0.4055 C   0  0  2  0  0  0
   25.0383  -19.2523   -0.0902 C   0  0  1  0  0  0
   24.9371  -17.8934    0.3488 O   0  0
   23.7170  -17.3058   -0.1860 C   0  0  2  0  0  0
   23.6072  -15.8480    0.2891 C   0  0
   21.4686  -20.3272    0.2907 O   0  0
   21.2795  -17.5163   -0.2193 O   0  0
   24.7441  -15.1138   -0.1687 O   0  0
   24.2092  -21.5217    0.0596 N   0  0
   25.4677  -21.7755    0.1188 C   0  0
   26.4881  -20.2604    0.5611 Se  0  0
   26.0143  -23.0288   -0.1318 O   0  0
   27.4337  -22.9677    0.0182 C   0  0
   28.0360  -24.3611   -0.2311 C   0  0
   29.5644  -24.2971   -0.0578 C   0  0
   22.4344  -18.0787    1.3971 H   0  0
   22.6255  -19.5927   -1.2586 H   0  0
   23.8314  -20.0279    1.4913 H   0  0
   25.0538  -19.2724   -1.1799 H   0  0
   23.7521  -17.3291   -1.2751 H   0  0
   22.6989  -15.4012   -0.1150 H   0  0
   23.5720  -15.8221    1.3783 H   0  0
   21.4426  -20.3120    1.3403 H   0  0
   21.3128  -17.5382   -1.2685 H   0  0
   25.6192  -15.5445    0.2202 H   0  0
   27.8449  -22.2601   -0.7017 H   0  0
   27.6784  -22.6418    1.0292 H   0  0
   27.6187  -25.0705    0.4834 H   0  0
   27.7986  -24.6835   -1.2449 H   0  0
   29.9922  -25.2839   -0.2342 H   0  0
   29.8024  -23.9745    0.9559 H   0  0
   29.9822  -23.5875   -0.7720 H   0  0
  1  2  1  0
  2  3  1  0
  3  4  1  0
  4  5  1  0
  5  6  1  0
  6  1  1  0
  6  7  1  0
  2  8  1  0
  1  9  1  0
  7 10  1  0
  3 11  1  0
 11 12  2  0
 12 13  1  0
 13  4  1  0
 12 14  1  0
 14 15  1  0
 15 16  1  0
 16 17  1  0
  1 18  1  0
  2 19  1  0
  3 20  1  0
  4 21  1  0
  6 22  1  0
  7 23  1  0
  7 24  1  0
  8 25  1  0
  9 26  1  0
 10 27  1  0
 15 28  1  0
 15 29  1  0
 16 30  1  0
 16 31  1  0
 17 32  1  0
 17 33  1  0
 17 34  1  0
M  END
> <Name>
8c Velueta-Viveros et al., 2022

> <Clean Energy>
20.2021961212158

> <Reference>
Velueta-Viveros et al., 2022

> <Forcefield>
MMFF

> <ForcefieldBase>
MMFF

> <ForcefieldFFML>
<?xml version="1.0" encoding="UTF-8"?>
<!DOCTYPE ffml SYSTEM "Ffml.dtd">
<ffml version="1.0">
<forcefield name="8c Velueta-Viveros et al., 2022-MMFF" derivedFrom="MMFF" base="MMFF">
<atomTypes>
<atomType
 name="C100"
 element="C"
 mass="12.011"
 annotation=""/>
<atomType
 name="O101"
 element="O"
 mass="16"
 annotation=""/>
<atomType
 name="N102"
 element="N"
 mass="14.007"
 annotation=""/>
<atomType
 name="Se103"
 element="Se"
 mass="78.96"
 annotation=""/>
<atomType
 name="H104"
 element="H"
 mass="1.008"
 annotation=""/>
</atomTypes>
<parameters>
</parameters>
</forcefield>
</ffml>

$$$$
8 Martínez-Viturro et al., 2020
  SciTegic07212313593D

 37 40  0  0  0  0            999 V2000
   29.6153  -20.3637   -0.0350 C   0  0
   29.6056  -21.7068    0.0429 N   0  0
   30.8225  -22.4183    0.1737 C   0  0
   31.9291  -21.6940    0.1981 C   0  0
   31.8869  -20.2088    0.1059 C   0  0
   30.7642  -19.6008   -0.0058 N   0  0
   28.4192  -19.9426   -0.1393 N   0  0
   27.6102  -21.1122   -0.1293 C   0  0
   28.3660  -22.1462   -0.0218 N   0  0
   30.9501  -23.8609    0.2215 N   0  0
   29.8872  -24.8331   -0.0406 C   0  0
   30.7187  -25.8801   -0.8911 C   0  0
   32.0156  -25.9046   -0.0738 C   0  0  1  0  0  0
   32.2787  -24.4122    0.1041 C   0  0
   31.8185  -26.7251    1.1856 C   0  0
   31.7671  -28.1490    0.5210 C   0  0
   32.7053  -28.0581   -0.6673 N   0  0
   33.1804  -26.6615   -0.6800 C   0  0
   33.1614  -19.4193    0.1324 C   0  0
   32.8927  -22.1955    0.2877 H   0  0
   26.5227  -21.1290   -0.2013 H   0  0
   29.4969  -25.2704    0.8785 H   0  0
   29.0678  -24.3991   -0.6136 H   0  0
   30.2362  -26.8572   -0.9159 H   0  0
   30.8879  -25.5319   -1.9101 H   0  0
   32.8628  -24.2220    1.0045 H   0  0
   32.7989  -24.0003   -0.7607 H   0  0
   32.6542  -26.6238    1.8780 H   0  0
   30.8892  -26.4761    1.6981 H   0  0
   32.1079  -28.9116    1.2212 H   0  0
   30.7543  -28.3828    0.1929 H   0  0
   32.1849  -28.2854   -1.5741 H   0  0
   34.0800  -26.5475   -0.0751 H   0  0
   33.3808  -26.3244   -1.6971 H   0  0
   32.9326  -18.3564    0.0549 H   0  0
   33.7914  -19.7169   -0.7059 H   0  0
   33.6880  -19.6097    1.0677 H   0  0
  1  2  1  0
  2  3  1  0
  3  4  2  0
  4  5  1  0
  5  6  2  0
  6  1  1  0
  1  7  2  0
  7  8  1  0
  8  9  2  0
  9  2  1  0
  3 10  1  0
 10 11  1  0
 11 12  1  0
 12 13  1  0
 13 14  1  0
 14 10  1  0
 13 15  1  0
 15 16  1  0
 16 17  1  0
 17 18  1  0
 18 13  1  0
  5 19  1  0
  4 20  1  0
  8 21  1  0
 11 22  1  0
 11 23  1  0
 12 24  1  0
 12 25  1  0
 14 26  1  0
 14 27  1  0
 15 28  1  0
 15 29  1  0
 16 30  1  0
 16 31  1  0
 17 32  1  0
 18 33  1  0
 18 34  1  0
 19 35  1  0
 19 36  1  0
 19 37  1  0
M  END
> <Name>
8 Martínez-Viturro et al., 2020

> <Clean Energy>
58.7613410949707

> <IC50>
3236nM

> <Reference>
Martínez-Viturro et al., 2020

> <Forcefield>
MMFF

> <ForcefieldBase>
MMFF

> <ForcefieldFFML>
<?xml version="1.0" encoding="UTF-8"?>
<!DOCTYPE ffml SYSTEM "Ffml.dtd">
<ffml version="1.0">
<forcefield name="8 Martínez-Viturro et al., 2020-MMFF" derivedFrom="MMFF" base="MMFF">
<atomTypes>
<atomType
 name="C100"
 element="C"
 mass="12.011"
 annotation=""/>
<atomType
 name="N101"
 element="N"
 mass="14.007"
 annotation=""/>
<atomType
 name="H102"
 element="H"
 mass="1.008"
 annotation=""/>
</atomTypes>
<parameters>
</parameters>
</forcefield>
</ffml>

$$$$
14 Martínez-Viturro et al., 2020
  SciTegic07212313593D

 34 37  0  0  0  0            999 V2000
   29.3372  -20.2315    0.0562 C   0  0
   29.2732  -21.5585    0.0084 N   0  0
   30.4292  -22.3442   -0.0385 C   0  0
   31.5980  -21.6996   -0.0233 C   0  0
   31.6234  -20.2076    0.0448 C   0  0
   30.5347  -19.5400    0.0797 N   0  0
   28.1682  -19.7495    0.0729 N   0  0
   27.2945  -20.8705    0.0329 C   0  0
   28.0017  -21.9380   -0.0050 N   0  0
   30.3957  -23.7605   -0.1155 N   0  0
   32.9372  -19.4847    0.0682 C   0  0
   29.3606  -24.5301   -0.1765 C   0  0
   30.3479  -25.7871   -0.5681 C   0  0
   31.4075  -24.5486   -0.2770 C   0  0
   29.5141  -26.6139    0.4449 C   0  0
   29.9553  -28.0644    0.2396 C   0  0
   31.3727  -27.9190    0.0192 N   0  0
   31.5618  -26.4697    0.1396 C   0  0
   32.5317  -22.2607   -0.0605 H   0  0
   26.2054  -20.8285    0.0342 H   0  0
   32.7605  -18.4104    0.1187 H   0  0
   33.4972  -19.7181   -0.8374 H   0  0
   33.5102  -19.7995    0.9405 H   0  0
   28.8357  -24.6510    0.7711 H   0  0
   28.6475  -24.2609   -0.9557 H   0  0
   32.0209  -24.6815    0.6141 H   0  0
   32.0454  -24.2940   -1.1233 H   0  0
   29.7235  -26.2918    1.4650 H   0  0
   28.4488  -26.5062    0.2408 H   0  0
   29.7521  -28.6688    1.1236 H   0  0
   29.4637  -28.5088   -0.6258 H   0  0
   31.6508  -28.2663   -0.9539 H   0  0
   31.5912  -26.1827    1.1907 H   0  0
   32.4920  -26.1727   -0.3448 H   0  0
  1  2  1  0
  2  3  1  0
  3  4  2  0
  4  5  1  0
  5  6  2  0
  6  1  1  0
  1  7  2  0
  7  8  1  0
  8  9  2  0
  9  2  1  0
  3 10  1  0
  5 11  1  0
 10 12  1  0
 12 13  1  0
 13 14  1  0
 14 10  1  0
 13 15  1  0
 15 16  1  0
 16 17  1  0
 17 18  1  0
 18 13  1  0
  4 19  1  0
  8 20  1  0
 11 21  1  0
 11 22  1  0
 11 23  1  0
 12 24  1  0
 12 25  1  0
 14 26  1  0
 14 27  1  0
 15 28  1  0
 15 29  1  0
 16 30  1  0
 16 31  1  0
 17 32  1  0
 18 33  1  0
 18 34  1  0
M  END
> <Name>
14 Martínez-Viturro et al., 2020

> <Clean Energy>
129.392150878906

> <Reference>
Martínez-Viturro et al., 2020

> <Forcefield>
MMFF

> <ForcefieldBase>
MMFF

> <ForcefieldFFML>
<?xml version="1.0" encoding="UTF-8"?>
<!DOCTYPE ffml SYSTEM "Ffml.dtd">
<ffml version="1.0">
<forcefield name="14 Martínez-Viturro et al., 2020-MMFF" derivedFrom="MMFF" base="MMFF">
<atomTypes>
<atomType
 name="C100"
 element="C"
 mass="12.011"
 annotation=""/>
<atomType
 name="N101"
 element="N"
 mass="14.007"
 annotation=""/>
<atomType
 name="H102"
 element="H"
 mass="1.008"
 annotation=""/>
</atomTypes>
<parameters>
</parameters>
</forcefield>
</ffml>

$$$$
17 Martínez-Viturro et al., 2020
  SciTegic07212313593D

 34 37  0  0  0  0            999 V2000
   29.5628  -20.0979   -0.0325 C   0  0
   29.5283  -21.4359   -0.0790 N   0  0
   30.7256  -22.1892   -0.0985 C   0  0
   31.8608  -21.4987   -0.0891 C   0  0
   31.8448  -20.0084   -0.0786 C   0  0
   30.7363  -19.3702   -0.0484 N   0  0
   28.3801  -19.6452    0.0353 N   0  0
   27.5379  -20.7906    0.0327 C   0  0
   28.2693  -21.8439   -0.0350 N   0  0
   30.7847  -23.6255   -0.0674 N   0  0
   33.1375  -19.2503   -0.0932 C   0  0
   29.6226  -24.5171   -0.0947 C   0  0
   30.1543  -25.6962    0.7822 C   0  0
   31.5802  -25.7511    0.2727 C   0  0
   32.0205  -24.2887    0.3245 C   0  0
   31.6970  -26.3886   -1.0971 C   0  0
   32.6268  -27.4071   -0.4802 N   0  0
   32.5233  -26.7729    0.8684 C   0  0
   32.8138  -22.0277   -0.0892 H   0  0
   26.4490  -20.7770    0.0802 H   0  0
   32.9318  -18.1800   -0.0827 H   0  0
   33.6976  -19.5032   -0.9935 H   0  0
   33.7248  -19.5155    0.7860 H   0  0
   28.7445  -24.0484    0.3497 H   0  0
   29.3878  -24.8424   -1.1081 H   0  0
   30.1100  -25.4654    1.8466 H   0  0
   29.6159  -26.6239    0.5884 H   0  0
   32.3325  -23.9978    1.3275 H   0  0
   32.8267  -24.0862   -0.3805 H   0  0
   30.7661  -26.8016   -1.4856 H   0  0
   32.1578  -25.7544   -1.8544 H   0  0
   33.6158  -27.3860   -0.8881 H   0  0
   32.0748  -27.4086    1.6319 H   0  0
   33.4585  -26.3577    1.2439 H   0  0
  1  2  1  0
  2  3  1  0
  3  4  2  0
  4  5  1  0
  5  6  2  0
  6  1  1  0
  1  7  2  0
  7  8  1  0
  8  9  2  0
  9  2  1  0
  3 10  1  0
  5 11  1  0
 10 12  1  0
 12 13  1  0
 13 14  1  0
 14 15  1  0
 15 10  1  0
 14 16  1  0
 16 17  1  0
 17 18  1  0
 18 14  1  0
  4 19  1  0
  8 20  1  0
 11 21  1  0
 11 22  1  0
 11 23  1  0
 12 24  1  0
 12 25  1  0
 13 26  1  0
 13 27  1  0
 15 28  1  0
 15 29  1  0
 16 30  1  0
 16 31  1  0
 17 32  1  0
 18 33  1  0
 18 34  1  0
M  END
> <Name>
17 Martínez-Viturro et al., 2020

> <Clean Energy>
47.7882843017578

> <Reference>
Martínez-Viturro et al., 2020

> <Forcefield>
MMFF

> <ForcefieldBase>
MMFF

> <ForcefieldFFML>
<?xml version="1.0" encoding="UTF-8"?>
<!DOCTYPE ffml SYSTEM "Ffml.dtd">
<ffml version="1.0">
<forcefield name="17 Martínez-Viturro et al., 2020-MMFF" derivedFrom="MMFF" base="MMFF">
<atomTypes>
<atomType
 name="C100"
 element="C"
 mass="12.011"
 annotation=""/>
<atomType
 name="N101"
 element="N"
 mass="14.007"
 annotation=""/>
<atomType
 name="H102"
 element="H"
 mass="1.008"
 annotation=""/>
</atomTypes>
<parameters>
</parameters>
</forcefield>
</ffml>

$$$$
52a Martínez-Viturro et al., 2020
  SciTegic07212313593D

 53 57  0  0  0  0            999 V2000
   12.0807  -16.4184   -0.0490 C   0  0
   12.0832  -17.7496   -0.0302 N   0  0
   13.2739  -18.4676    0.0855 C   0  0
   14.4015  -17.7592    0.1612 C   0  0
   14.3568  -16.2732    0.1138 C   0  0
   13.2392  -15.6626    0.0134 N   0  0
   10.8902  -15.9981   -0.1252 N   0  0
   10.0779  -17.1650   -0.1560 C   0  0
   10.8376  -18.1952   -0.0961 N   0  0
   13.3428  -19.8805    0.1191 N   0  0
   12.3059  -20.7484   -0.1332 C   0  0
   13.0309  -22.0111    0.3156 C   0  0
   14.4751  -21.9630   -0.3179 C   0  0  1  0  0  0
   14.5590  -20.5438    0.3613 C   0  0
   14.1190  -23.3767    0.2769 C   0  0
   15.1058  -24.4027   -0.2957 C   0  0
   16.2720  -23.5939   -0.4040 N   0  0
   15.8676  -22.3535    0.2513 C   0  0
   15.6329  -15.4874    0.1781 C   0  0
   17.5004  -24.2526    0.1528 C   0  0
   18.8187  -23.4547   -0.0033 C   0  0
   20.3788  -24.1370    0.3207 S   0  0
   21.1502  -22.6278   -0.1193 C   0  0
   20.3059  -21.7334   -0.4596 N   0  0
   18.9445  -22.1840   -0.4104 C   0  0
   22.5362  -22.3972   -0.1193 N   0  0
   23.4216  -23.3744    0.0722 C   0  0
   24.8874  -23.0557    0.0548 C   0  0
   23.0523  -24.5407    0.2424 O   0  0
   15.3590  -18.2710    0.2581 H   0  0
    8.9898  -17.1805   -0.2200 H   0  0
   11.4235  -20.5345    0.4698 H   0  0
   12.0286  -20.7759   -1.1870 H   0  0
   13.0999  -22.0366    1.4031 H   0  0
   12.4972  -22.8942   -0.0359 H   0  0
   14.7136  -20.6548    1.4345 H   0  0
   15.3837  -19.9752   -0.0683 H   0  0
   14.2031  -23.3511    1.3633 H   0  0
   13.1012  -23.6485   -0.0030 H   0  0
   15.2572  -25.2408    0.3846 H   0  0
   14.7817  -24.7764   -1.2670 H   0  0
   15.8008  -22.5055    1.3286 H   0  0
   16.5913  -21.5665    0.0391 H   0  0
   15.4070  -14.4221    0.1308 H   0  0
   16.2711  -15.7605   -0.6623 H   0  0
   16.1492  -15.7077    1.1124 H   0  0
   17.3361  -24.4230    1.2167 H   0  0
   17.6262  -25.2095   -0.3538 H   0  0
   18.0958  -21.5545   -0.6778 H   0  0
   22.8935  -21.4013   -0.2787 H   0  0
   25.4599  -23.9671    0.2269 H   0  0
   25.1118  -22.3327    0.8391 H   0  0
   25.1569  -22.6354   -0.9141 H   0  0
  1  2  1  0
  2  3  1  0
  3  4  2  0
  4  5  1  0
  5  6  2  0
  6  1  1  0
  1  7  2  0
  7  8  1  0
  8  9  2  0
  9  2  1  0
  3 10  1  0
 10 11  1  0
 11 12  1  0
 12 13  1  0
 13 14  1  0
 14 10  1  0
 13 15  1  0
 15 16  1  0
 16 17  1  0
 17 18  1  0
 18 13  1  0
  5 19  1  0
 17 20  1  0
 20 21  1  0
 21 22  1  0
 22 23  1  0
 23 24  2  0
 24 25  1  0
 25 21  2  0
 23 26  1  0
 26 27  1  0
 27 28  1  0
 27 29  2  0
  4 30  1  0
  8 31  1  0
 11 32  1  0
 11 33  1  0
 12 34  1  0
 12 35  1  0
 14 36  1  0
 14 37  1  0
 15 38  1  0
 15 39  1  0
 16 40  1  0
 16 41  1  0
 18 42  1  0
 18 43  1  0
 19 44  1  0
 19 45  1  0
 19 46  1  0
 20 47  1  0
 20 48  1  0
 25 49  1  0
 26 50  1  0
 28 51  1  0
 28 52  1  0
 28 53  1  0
M  END
> <Name>
52a Martínez-Viturro et al., 2020

> <Clean Energy>
164.144714355469

> <IC50>
4nM

> <Reference>
Martínez-Viturro et al., 2020

> <Forcefield>
MMFF

> <ForcefieldBase>
MMFF

> <ForcefieldFFML>
<?xml version="1.0" encoding="UTF-8"?>
<!DOCTYPE ffml SYSTEM "Ffml.dtd">
<ffml version="1.0">
<forcefield name="52a Martínez-Viturro et al., 2020-MMFF" derivedFrom="MMFF" base="MMFF">
<atomTypes>
<atomType
 name="C100"
 element="C"
 mass="12.011"
 annotation=""/>
<atomType
 name="N101"
 element="N"
 mass="14.007"
 annotation=""/>
<atomType
 name="S102"
 element="S"
 mass="32.066"
 annotation=""/>
<atomType
 name="O103"
 element="O"
 mass="16"
 annotation=""/>
<atomType
 name="H104"
 element="H"
 mass="1.008"
 annotation=""/>
</atomTypes>
<parameters>
</parameters>
</forcefield>
</ffml>

$$$$
52b Martínez-Viturro et al., 2020
  SciTegic07212313593D

 53 58  0  0  0  0            999 V2000
    9.5815  -25.9819   -0.0437 C   0  0
    9.5767  -27.3124   -0.0211 N   0  0
   10.7635  -28.0455    0.0926 C   0  0
   11.8990  -27.3442    0.1645 C   0  0
   11.8588  -25.8529    0.1155 C   0  0
   10.7454  -25.2361    0.0162 N   0  0
    8.3955  -25.5527   -0.1213 N   0  0
    7.5729  -26.7116   -0.1492 C   0  0
    8.3242  -27.7473   -0.0864 N   0  0
   10.8090  -29.4655    0.1263 N   0  0
    9.7465  -30.2940   -0.0997 C   0  0
   10.4320  -31.5833    0.3208 C   0  0
   11.8569  -31.6004   -0.3513 C   0  0  2  0  0  0
   12.0035  -30.1818    0.3552 C   0  0
   11.6361  -33.0465    0.2192 C   0  0
   12.7633  -33.9469   -0.3100 C   0  0
   13.8240  -33.0032   -0.4066 N   0  0
   13.2640  -31.8428    0.2812 C   0  0
   13.1375  -25.0708    0.1771 C   0  0
   15.1171  -33.5497    0.1268 C   0  0
   16.3588  -32.6339    0.0058 C   0  0
   17.5621  -33.1592    0.2551 C   0  0
   18.7391  -32.3040    0.1403 C   0  0
   18.6421  -31.0438   -0.1861 C   0  0
   17.3636  -30.4319   -0.4624 C   0  0
   16.2704  -31.1888   -0.3797 C   0  0
   20.0278  -32.7053    0.3546 O   0  0
   20.8012  -31.4697    0.1075 C   0  0
   19.8450  -30.4013   -0.2416 O   0  0
   12.8540  -27.8610    0.2589 H   0  0
    6.4848  -26.7180   -0.2134 H   0  0
    8.8882  -30.0534    0.5277 H   0  0
    9.4407  -30.3054   -1.1458 H   0  0
   10.5317  -31.6153    1.4057 H   0  0
    9.8507  -32.4413   -0.0168 H   0  0
   12.1579  -30.3142    1.4261 H   0  0
   12.8486  -29.6404   -0.0701 H   0  0
   11.6641  -33.0218    1.3085 H   0  0
   10.6710  -33.4303   -0.1114 H   0  0
   13.0002  -34.7484    0.3897 H   0  0
   12.5148  -34.3738   -1.2817 H   0  0
   13.1691  -32.0453    1.3480 H   0  0
   13.9010  -30.9710    0.1316 H   0  0
   12.9148  -24.0050    0.1291 H   0  0
   13.7737  -25.3468   -0.6639 H   0  0
   13.6545  -25.2917    1.1110 H   0  0
   14.9713  -33.7710    1.1841 H   0  0
   15.3332  -34.4724   -0.4116 H   0  0
   17.6626  -34.2068    0.5388 H   0  0
   17.2947  -29.3779   -0.7316 H   0  0
   15.2963  -30.7499   -0.5959 H   0  0
   21.3546  -31.1931    1.0050 H   0  0
   21.4981  -31.6270   -0.7156 H   0  0
  1  2  1  0
  2  3  1  0
  3  4  2  0
  4  5  1  0
  5  6  2  0
  6  1  1  0
  1  7  2  0
  7  8  1  0
  8  9  2  0
  9  2  1  0
  3 10  1  0
 10 11  1  0
 11 12  1  0
 12 13  1  0
 13 14  1  0
 14 10  1  0
 13 15  1  0
 15 16  1  0
 16 17  1  0
 17 18  1  0
 18 13  1  0
  5 19  1  0
 17 20  1  0
 20 21  1  0
 21 22  2  0
 22 23  1  0
 23 24  2  0
 24 25  1  0
 25 26  2  0
 26 21  1  0
 23 27  1  0
 27 28  1  0
 28 29  1  0
 29 24  1  0
  4 30  1  0
  8 31  1  0
 11 32  1  0
 11 33  1  0
 12 34  1  0
 12 35  1  0
 14 36  1  0
 14 37  1  0
 15 38  1  0
 15 39  1  0
 16 40  1  0
 16 41  1  0
 18 42  1  0
 18 43  1  0
 19 44  1  0
 19 45  1  0
 19 46  1  0
 20 47  1  0
 20 48  1  0
 22 49  1  0
 25 50  1  0
 26 51  1  0
 28 52  1  0
 28 53  1  0
M  END
> <Name>
52b Martínez-Viturro et al., 2020

> <Clean Energy>
165.672134399414

> <IC50>
129nM

> <Reference>
Martínez-Viturro et al., 2020

> <Forcefield>
MMFF

> <ForcefieldBase>
MMFF

> <ForcefieldFFML>
<?xml version="1.0" encoding="UTF-8"?>
<!DOCTYPE ffml SYSTEM "Ffml.dtd">
<ffml version="1.0">
<forcefield name="52b Martínez-Viturro et al., 2020-MMFF" derivedFrom="MMFF" base="MMFF">
<atomTypes>
<atomType
 name="C100"
 element="C"
 mass="12.011"
 annotation=""/>
<atomType
 name="N101"
 element="N"
 mass="14.007"
 annotation=""/>
<atomType
 name="O102"
 element="O"
 mass="16"
 annotation=""/>
<atomType
 name="H103"
 element="H"
 mass="1.008"
 annotation=""/>
</atomTypes>
<parameters>
</parameters>
</forcefield>
</ffml>

$$$$
52c Martínez-Viturro et al., 2020
  SciTegic07212313593D

 54 59  0  0  0  0            999 V2000
    8.5145  -45.3763   -0.0465 C   0  0
    8.5208  -46.7078   -0.0218 N   0  0
    9.7144  -47.4286    0.0836 C   0  0
   10.8432  -46.7167    0.1444 C   0  0
   10.7916  -45.2272    0.0945 C   0  0
    9.6724  -44.6196    0.0042 N   0  0
    7.3243  -44.9576   -0.1173 N   0  0
    6.5124  -46.1246   -0.1391 C   0  0
    7.2732  -47.1539   -0.0797 N   0  0
    9.7794  -48.8471    0.1247 N   0  0
    8.7254  -49.6990   -0.0576 C   0  0
    9.4504  -50.9672    0.3681 C   0  0
   10.8580  -50.9681   -0.3416 C   0  0  2  0  0  0
   10.9917  -49.5354    0.3314 C   0  0
   10.6603  -52.4028    0.2606 C   0  0
   11.7739  -53.3069   -0.2913 C   0  0
   12.8344  -52.3642   -0.4133 N   0  0
   12.2788  -51.1918    0.2586 C   0  0
   12.0651  -44.4357    0.1475 C   0  0
   14.1359  -52.9017    0.1189 C   0  0
   15.3759  -51.9794   -0.0023 C   0  0
   16.5834  -52.5035    0.2108 C   0  0
   17.7856  -51.6623    0.1084 C   0  0
   17.6740  -50.3661   -0.1814 C   0  0
   16.3661  -49.7836   -0.4143 C   0  0
   15.2799  -50.5435   -0.3387 C   0  0
   19.0514  -52.2199    0.3177 N   0  0
   20.0920  -51.4932    0.2295 C   0  0
   19.9644  -50.0687   -0.0846 C   0  0
   18.8137  -49.5648   -0.2742 N   0  0
   11.8034  -47.2254    0.2306 H   0  0
    5.4240  -46.1409   -0.1966 H   0  0
    7.8799  -49.4631    0.5887 H   0  0
    8.3915  -49.7357   -1.0946 H   0  0
    9.5793  -50.9768    1.4504 H   0  0
    8.8787  -51.8434    0.0620 H   0  0
   11.1788  -49.6439    1.3997 H   0  0
   11.8131  -48.9854   -0.1278 H   0  0
   10.7239  -52.3595    1.3479 H   0  0
    9.6864  -52.7955   -0.0316 H   0  0
   12.0248  -54.1072    0.4049 H   0  0
   11.5033  -53.7356   -1.2562 H   0  0
   12.2101  -51.3705    1.3316 H   0  0
   12.9065  -50.3199    0.0744 H   0  0
   11.8344  -43.3716    0.0999 H   0  0
   12.6981  -44.7078   -0.6972 H   0  0
   12.5895  -44.6520    1.0783 H   0  0
   13.9927  -53.1239    1.1763 H   0  0
   14.3567  -53.8231   -0.4199 H   0  0
   16.6799  -53.5598    0.4619 H   0  0
   16.2751  -48.7235   -0.6509 H   0  0
   14.3018  -50.1012   -0.5279 H   0  0
   21.0777  -51.9307    0.3877 H   0  0
   20.8538  -49.4426   -0.1554 H   0  0
  1  2  1  0
  2  3  1  0
  3  4  2  0
  4  5  1  0
  5  6  2  0
  6  1  1  0
  1  7  2  0
  7  8  1  0
  8  9  2  0
  9  2  1  0
  3 10  1  0
 10 11  1  0
 11 12  1  0
 12 13  1  0
 13 14  1  0
 14 10  1  0
 13 15  1  0
 15 16  1  0
 16 17  1  0
 17 18  1  0
 18 13  1  0
  5 19  1  0
 17 20  1  0
 20 21  1  0
 21 22  2  0
 22 23  1  0
 23 24  2  0
 24 25  1  0
 25 26  2  0
 26 21  1  0
 23 27  1  0
 27 28  2  0
 28 29  1  0
 29 30  2  0
 30 24  1  0
  4 31  1  0
  8 32  1  0
 11 33  1  0
 11 34  1  0
 12 35  1  0
 12 36  1  0
 14 37  1  0
 14 38  1  0
 15 39  1  0
 15 40  1  0
 16 41  1  0
 16 42  1  0
 18 43  1  0
 18 44  1  0
 19 45  1  0
 19 46  1  0
 19 47  1  0
 20 48  1  0
 20 49  1  0
 22 50  1  0
 25 51  1  0
 26 52  1  0
 28 53  1  0
 29 54  1  0
M  END
> <Name>
52c Martínez-Viturro et al., 2020

> <Clean Energy>
151.492385864258

> <IC50>
74nM

> <Reference>
Martínez-Viturro et al., 2020

> <Forcefield>
MMFF

> <ForcefieldBase>
MMFF

> <ForcefieldFFML>
<?xml version="1.0" encoding="UTF-8"?>
<!DOCTYPE ffml SYSTEM "Ffml.dtd">
<ffml version="1.0">
<forcefield name="52c Martínez-Viturro et al., 2020-MMFF" derivedFrom="MMFF" base="MMFF">
<atomTypes>
<atomType
 name="C100"
 element="C"
 mass="12.011"
 annotation=""/>
<atomType
 name="N101"
 element="N"
 mass="14.007"
 annotation=""/>
<atomType
 name="H102"
 element="H"
 mass="1.008"
 annotation=""/>
</atomTypes>
<parameters>
</parameters>
</forcefield>
</ffml>

$$$$
52d Martínez-Viturro et al., 2020
  SciTegic07212313593D

 55 60  0  0  0  0            999 V2000
    8.5561  -64.5943   -0.0486 C   0  0
    8.5616  -65.9256   -0.0222 N   0  0
    9.7521  -66.6520    0.0881 C   0  0
   10.8846  -65.9412    0.1524 C   0  0
   10.8334  -64.4500    0.1005 C   0  0
    9.7165  -63.8410    0.0057 N   0  0
    7.3687  -64.1733   -0.1242 N   0  0
    6.5534  -65.3377   -0.1476 C   0  0
    7.3114  -66.3688   -0.0843 N   0  0
    9.8111  -68.0726    0.1305 N   0  0
    8.7484  -68.9127   -0.0528 C   0  0
    9.4535  -70.1905    0.3740 C   0  0
   10.8608  -70.2129   -0.3319 C   0  0  2  0  0  0
   11.0155  -68.7783    0.3432 C   0  0
   10.6897  -71.6517    0.2696 C   0  0
   11.8301  -72.5339   -0.2633 C   0  0
   12.8667  -71.5683   -0.3912 N   0  0
   12.2834  -70.4088    0.2821 C   0  0
   12.1077  -63.6595    0.1572 C   0  0
   14.1817  -72.0770    0.1372 C   0  0
   15.3977  -71.1286   -0.0048 C   0  0
   16.6225  -71.6200    0.2208 C   0  0
   17.7719  -70.7264    0.0862 C   0  0
   17.6093  -69.4560   -0.2393 C   0  0
   16.3151  -68.8864   -0.4863 C   0  0
   15.2547  -69.6841   -0.3852 C   0  0
   19.1414  -71.1079    0.2733 N   0  0
   19.9447  -70.1240    0.0856 C   0  0
   19.1175  -68.6308   -0.3303 S   0  0
   21.4352  -70.2330    0.2048 C   0  0
   11.8438  -66.4510    0.2426 H   0  0
    5.4652  -65.3511   -0.2092 H   0  0
    7.9048  -68.6658    0.5917 H   0  0
    8.4161  -68.9457   -1.0904 H   0  0
    9.5801  -70.2017    1.4566 H   0  0
    8.8694  -71.0581    0.0670 H   0  0
   11.1973  -68.8887    1.4123 H   0  0
   11.8465  -68.2407   -0.1135 H   0  0
   10.7373  -71.6047    1.3575 H   0  0
    9.7290  -72.0669   -0.0350 H   0  0
   12.0964  -73.3184    0.4449 H   0  0
   11.5769  -72.9817   -1.2242 H   0  0
   12.2093  -70.5930    1.3539 H   0  0
   12.8949  -69.5237    0.1064 H   0  0
   11.8782  -62.5952    0.1077 H   0  0
   12.7434  -63.9331   -0.6850 H   0  0
   12.6286  -63.8753    1.0901 H   0  0
   14.0515  -72.2915    1.1979 H   0  0
   14.4174  -72.9990   -0.3942 H   0  0
   16.7600  -72.6648    0.4990 H   0  0
   16.2044  -67.8342   -0.7485 H   0  0
   14.2618  -69.2799   -0.5826 H   0  0
   21.8885  -69.2634   -0.0012 H   0  0
   21.8049  -70.9660   -0.5122 H   0  0
   21.6973  -70.5488    1.2146 H   0  0
  1  2  1  0
  2  3  1  0
  3  4  2  0
  4  5  1  0
  5  6  2  0
  6  1  1  0
  1  7  2  0
  7  8  1  0
  8  9  2  0
  9  2  1  0
  3 10  1  0
 10 11  1  0
 11 12  1  0
 12 13  1  0
 13 14  1  0
 14 10  1  0
 13 15  1  0
 15 16  1  0
 16 17  1  0
 17 18  1  0
 18 13  1  0
  5 19  1  0
 17 20  1  0
 20 21  1  0
 21 22  2  0
 22 23  1  0
 23 24  2  0
 24 25  1  0
 25 26  2  0
 26 21  1  0
 23 27  1  0
 27 28  2  0
 28 29  1  0
 29 24  1  0
 28 30  1  0
  4 31  1  0
  8 32  1  0
 11 33  1  0
 11 34  1  0
 12 35  1  0
 12 36  1  0
 14 37  1  0
 14 38  1  0
 15 39  1  0
 15 40  1  0
 16 41  1  0
 16 42  1  0
 18 43  1  0
 18 44  1  0
 19 45  1  0
 19 46  1  0
 19 47  1  0
 20 48  1  0
 20 49  1  0
 22 50  1  0
 25 51  1  0
 26 52  1  0
 30 53  1  0
 30 54  1  0
 30 55  1  0
M  END
> <Name>
52d Martínez-Viturro et al., 2020

> <Clean Energy>
166.440032958984

> <IC50>
22nM

> <Reference>
Martínez-Viturro et al., 2020

> <Forcefield>
MMFF

> <ForcefieldBase>
MMFF

> <ForcefieldFFML>
<?xml version="1.0" encoding="UTF-8"?>
<!DOCTYPE ffml SYSTEM "Ffml.dtd">
<ffml version="1.0">
<forcefield name="52d Martínez-Viturro et al., 2020-MMFF" derivedFrom="MMFF" base="MMFF">
<atomTypes>
<atomType
 name="C100"
 element="C"
 mass="12.011"
 annotation=""/>
<atomType
 name="N101"
 element="N"
 mass="14.007"
 annotation=""/>
<atomType
 name="S102"
 element="S"
 mass="32.066"
 annotation=""/>
<atomType
 name="H103"
 element="H"
 mass="1.008"
 annotation=""/>
</atomTypes>
<parameters>
</parameters>
</forcefield>
</ffml>

$$$$
53 Martínez-Viturro et al., 2020
  SciTegic07212313593D

 50 54  0  0  0  0            999 V2000
   13.6360  -17.1087    0.0480 C   0  0
   13.6512  -18.4400    0.0494 N   0  0
   14.8517  -19.1608    0.0522 C   0  0
   15.9815  -18.4450    0.0585 C   0  0
   15.9175  -16.9526    0.0644 C   0  0
   14.7929  -16.3489    0.0575 N   0  0
   12.4430  -16.6949    0.0356 N   0  0
   11.6352  -17.8655    0.0299 C   0  0
   12.4025  -18.8923    0.0390 N   0  0
   14.9119  -20.5822    0.0271 N   0  0
   17.1877  -16.1545    0.0715 C   0  0
   13.9322  -21.4127   -0.1136 C   0  0
   15.0188  -22.5578   -0.5972 C   0  0
   15.9781  -21.3098   -0.0886 C   0  0
   13.9965  -23.4417    0.1731 C   0  0
   14.3627  -24.8982   -0.1146 C   0  0
   15.7830  -24.8001   -0.2843 N   0  0
   16.0715  -23.4288    0.1864 C   0  0
   16.4739  -25.9506    0.3817 C   0  0
   17.9822  -26.0842    0.1496 C   0  0
   18.8357  -27.5646    0.4372 S   0  0
   20.3299  -26.8329   -0.0884 C   0  0
   20.1762  -25.6089   -0.4273 N   0  0
   18.8134  -25.1414   -0.3075 C   0  0
   21.5729  -27.4956   -0.1483 N   0  0
   21.6921  -28.8111    0.0515 C   0  0
   20.7010  -29.5115    0.2830 O   0  0
   23.0473  -29.4518   -0.0275 C   0  0
   16.9475  -18.9499    0.0594 H   0  0
   10.5454  -17.8861    0.0195 H   0  0
   16.9491  -15.0910    0.0751 H   0  0
   17.7718  -16.3923   -0.8175 H   0  0
   17.7663  -16.3995    0.9622 H   0  0
   13.4091  -21.6519    0.8123 H   0  0
   13.2084  -21.1287   -0.8775 H   0  0
   16.5004  -21.4964    0.8497 H   0  0
   16.6877  -20.9537   -0.8354 H   0  0
   14.0612  -23.2435    1.2429 H   0  0
   12.9847  -23.2340   -0.1749 H   0  0
   14.1044  -25.5475    0.7219 H   0  0
   13.8765  -25.2607   -1.0203 H   0  0
   15.9252  -23.3453    1.2633 H   0  0
   17.0900  -23.1339   -0.0664 H   0  0
   16.3138  -25.8533    1.4555 H   0  0
   16.0039  -26.8673    0.0254 H   0  0
   18.4974  -24.1298   -0.5624 H   0  0
   22.4522  -26.9245   -0.3615 H   0  0
   22.9556  -30.5215    0.1607 H   0  0
   23.7042  -29.0070    0.7200 H   0  0
   23.4676  -29.2928   -1.0206 H   0  0
  1  2  1  0
  2  3  1  0
  3  4  2  0
  4  5  1  0
  5  6  2  0
  6  1  1  0
  1  7  2  0
  7  8  1  0
  8  9  2  0
  9  2  1  0
  3 10  1  0
  5 11  1  0
 10 12  1  0
 12 13  1  0
 13 14  1  0
 14 10  1  0
 13 15  1  0
 15 16  1  0
 16 17  1  0
 17 18  1  0
 18 13  1  0
 17 19  1  0
 19 20  1  0
 20 21  1  0
 21 22  1  0
 22 23  2  0
 23 24  1  0
 24 20  2  0
 22 25  1  0
 25 26  1  0
 26 27  2  0
 26 28  1  0
  4 29  1  0
  8 30  1  0
 11 31  1  0
 11 32  1  0
 11 33  1  0
 12 34  1  0
 12 35  1  0
 14 36  1  0
 14 37  1  0
 15 38  1  0
 15 39  1  0
 16 40  1  0
 16 41  1  0
 18 42  1  0
 18 43  1  0
 19 44  1  0
 19 45  1  0
 24 46  1  0
 25 47  1  0
 28 48  1  0
 28 49  1  0
 28 50  1  0
M  END
> <Name>
53 Martínez-Viturro et al., 2020

> <Clean Energy>
152.654586791992

> <IC50>
41nM

> <Reference>
Martínez-Viturro et al., 2020

> <Forcefield>
MMFF

> <ForcefieldBase>
MMFF

> <ForcefieldFFML>
<?xml version="1.0" encoding="UTF-8"?>
<!DOCTYPE ffml SYSTEM "Ffml.dtd">
<ffml version="1.0">
<forcefield name="53 Martínez-Viturro et al., 2020-MMFF" derivedFrom="MMFF" base="MMFF">
<atomTypes>
<atomType
 name="C100"
 element="C"
 mass="12.011"
 annotation=""/>
<atomType
 name="N101"
 element="N"
 mass="14.007"
 annotation=""/>
<atomType
 name="S102"
 element="S"
 mass="32.066"
 annotation=""/>
<atomType
 name="O103"
 element="O"
 mass="16"
 annotation=""/>
<atomType
 name="H104"
 element="H"
 mass="1.008"
 annotation=""/>
</atomTypes>
<parameters>
</parameters>
</forcefield>
</ffml>

$$$$
54 Martínez-Viturro et al., 2020
  SciTegic07212313593D

 50 54  0  0  0  0            999 V2000
   15.7370  -22.5562   -0.0097 C   0  0
   15.7329  -23.8882   -0.0424 N   0  0
   16.9314  -24.6199   -0.1181 C   0  0
   18.0620  -23.9145   -0.1535 C   0  0
   18.0160  -22.4216   -0.1139 C   0  0
   16.8974  -21.8071   -0.0446 N   0  0
   14.5472  -22.1287    0.0557 N   0  0
   13.7272  -23.2892    0.0640 C   0  0
   14.4809  -24.3239    0.0035 N   0  0
   16.9828  -26.0473   -0.1370 N   0  0
   19.2919  -21.6345   -0.1492 C   0  0
   15.8814  -26.8884    0.0047 C   0  0
   16.6045  -28.2096   -0.2333 C   0  0
   17.9174  -28.0992    0.6044 C   0  0
   18.2141  -26.7726   -0.1982 C   0  0
   17.8793  -29.6444    0.1739 C   0  0
   19.2137  -29.8991    0.5282 N   0  0
   19.4314  -28.5244    0.2967 C   0  0
   19.8604  -30.8464   -0.4391 C   0  0
   21.3568  -31.0799   -0.1795 C   0  0
   22.1743  -32.5677   -0.5534 S   0  0
   23.6722  -31.9191    0.0838 C   0  0
   23.5398  -30.7205    0.5052 N   0  0
   22.2043  -30.2057    0.3733 C   0  0
   24.8971  -32.6111    0.1518 N   0  0
   25.0020  -33.9169   -0.0958 C   0  0
   24.0074  -34.5909   -0.3821 O   0  0
   26.3456  -34.5800    0.0029 C   0  0
   19.0219  -24.4278   -0.2115 H   0  0
   12.6383  -23.2979    0.1137 H   0  0
   19.0635  -20.5693   -0.1125 H   0  0
   19.8321  -21.8582   -1.0691 H   0  0
   19.9089  -21.9029    0.7084 H   0  0
   15.4411  -26.8305    1.0002 H   0  0
   15.1135  -26.6955   -0.7445 H   0  0
   15.9981  -29.0472    0.1113 H   0  0
   16.8334  -28.3373   -1.2914 H   0  0
   19.0196  -26.2080    0.2713 H   0  0
   18.4806  -26.9964   -1.2311 H   0  0
   17.1659  -30.2303    0.7534 H   0  0
   17.6870  -29.7853   -0.8897 H   0  0
   20.1476  -28.0834    0.9901 H   0  0
   19.7355  -28.3074   -0.7273 H   0  0
   19.3475  -31.8060   -0.3737 H   0  0
   19.7463  -30.4406   -1.4443 H   0  0
   21.9122  -29.2050    0.6915 H   0  0
   25.7801  -32.0661    0.4130 H   0  0
   26.2461  -35.6401   -0.2302 H   0  0
   26.7341  -34.4661    1.0149 H   0  0
   27.0332  -34.1160   -0.7042 H   0  0
  1  2  1  0
  2  3  1  0
  3  4  2  0
  4  5  1  0
  5  6  2  0
  6  1  1  0
  1  7  2  0
  7  8  1  0
  8  9  2  0
  9  2  1  0
  3 10  1  0
  5 11  1  0
 10 12  1  0
 12 13  1  0
 13 14  1  0
 14 15  1  0
 15 10  1  0
 14 16  1  0
 16 17  1  0
 17 18  1  0
 18 14  1  0
 17 19  1  0
 19 20  1  0
 20 21  1  0
 21 22  1  0
 22 23  2  0
 23 24  1  0
 24 20  2  0
 22 25  1  0
 25 26  1  0
 26 27  2  0
 26 28  1  0
  4 29  1  0
  8 30  1  0
 11 31  1  0
 11 32  1  0
 11 33  1  0
 12 34  1  0
 12 35  1  0
 13 36  1  0
 13 37  1  0
 15 38  1  0
 15 39  1  0
 16 40  1  0
 16 41  1  0
 18 42  1  0
 18 43  1  0
 19 44  1  0
 19 45  1  0
 24 46  1  0
 25 47  1  0
 28 48  1  0
 28 49  1  0
 28 50  1  0
M  END
> <Name>
54 Martínez-Viturro et al., 2020

> <Clean Energy>
134.630966186523

> <IC50>
34nM

> <Reference>
Martínez-Viturro et al., 2020

> <Forcefield>
MMFF

> <ForcefieldBase>
MMFF

> <ForcefieldFFML>
<?xml version="1.0" encoding="UTF-8"?>
<!DOCTYPE ffml SYSTEM "Ffml.dtd">
<ffml version="1.0">
<forcefield name="54 Martínez-Viturro et al., 2020-MMFF" derivedFrom="MMFF" base="MMFF">
<atomTypes>
<atomType
 name="C100"
 element="C"
 mass="12.011"
 annotation=""/>
<atomType
 name="N101"
 element="N"
 mass="14.007"
 annotation=""/>
<atomType
 name="S102"
 element="S"
 mass="32.066"
 annotation=""/>
<atomType
 name="O103"
 element="O"
 mass="16"
 annotation=""/>
<atomType
 name="H104"
 element="H"
 mass="1.008"
 annotation=""/>
</atomTypes>
<parameters>
</parameters>
</forcefield>
</ffml>

$$$$
65 Martínez-Viturro et al., 2020
  SciTegic07212313593D

 58 61  0  0  0  0            999 V2000
   18.1514  -27.7512   -0.2926 C   0  0  2  0  0  0
   17.9060  -29.1209    0.4423 C   0  0
   18.8997  -30.1473   -0.1241 C   0  0
   20.0344  -29.3112   -0.3328 N   0  0
   19.5954  -28.0355    0.2333 C   0  0
   21.2978  -29.8861    0.2514 C   0  0
   18.1888  -26.2767    0.2562 C   0  0
   16.8627  -25.5587   -0.0150 C   0  0
   15.9615  -26.6961   -0.2827 C   0  0  1  0  0  0
   16.7229  -27.8038    0.4232 C   0  0
   14.5255  -26.2961    0.1957 C   0  0
   13.3970  -27.3105    0.0731 C   0  0
   12.1495  -26.8685    0.1850 C   0  0
   11.0349  -27.8029    0.0826 C   0  0
   11.2509  -29.0444   -0.1015 N   0  0
   12.5597  -29.5529   -0.2163 C   0  0
   13.6130  -28.7383   -0.1426 C   0  0
   12.7688  -31.0228   -0.4220 C   0  0
    9.6266  -27.2957    0.1932 C   0  0
   22.5960  -29.0641    0.0374 C   0  0
   24.1769  -29.6954    0.3758 S   0  0
   24.9113  -28.1914   -0.1370 C   0  0
   24.0430  -27.3321   -0.5094 N   0  0
   22.6885  -27.8105   -0.4268 C   0  0
   26.2944  -27.9296   -0.1556 N   0  0
   27.2045  -28.8770    0.0740 C   0  0
   28.6630  -28.5244    0.0368 C   0  0
   26.8643  -30.0430    0.2967 O   0  0
   18.0687  -29.0005    1.5133 H   0  0
   16.8847  -29.4580    0.2650 H   0  0
   19.1103  -30.9423    0.5911 H   0  0
   18.5422  -30.5827   -1.0573 H   0  0
   19.5883  -28.0958    1.3216 H   0  0
   20.2686  -27.2386   -0.0826 H   0  0
   21.1470  -29.9930    1.3256 H   0  0
   21.4511  -30.8690   -0.1941 H   0  0
   18.3683  -26.3005    1.3310 H   0  0
   18.9958  -25.7334   -0.2355 H   0  0
   16.5349  -24.9869    0.8532 H   0  0
   16.9372  -24.8981   -0.8788 H   0  0
   15.9422  -26.8972   -1.3538 H   0  0
   16.8097  -27.6034    1.4910 H   0  0
   16.2421  -28.7703    0.2722 H   0  0
   14.6027  -26.0303    1.2500 H   0  0
   14.2301  -25.4188   -0.3799 H   0  0
   11.9592  -25.8085    0.3531 H   0  0
   14.6237  -29.1339   -0.2424 H   0  0
   13.8363  -31.2328   -0.4880 H   0  0
   12.2801  -31.3342   -1.3452 H   0  0
   12.3423  -31.5720    0.4175 H   0  0
    8.9310  -28.1288    0.0938 H   0  0
    9.4383  -26.5695   -0.5976 H   0  0
    9.4864  -26.8198    1.1638 H   0  0
   21.8234  -27.2125   -0.7135 H   0  0
   26.6277  -26.9339   -0.3616 H   0  0
   29.2577  -29.4137    0.2454 H   0  0
   28.8726  -27.7633    0.7885 H   0  0
   28.9194  -28.1399   -0.9504 H   0  0
  1  2  1  0
  2  3  1  0
  3  4  1  0
  4  5  1  0
  5  1  1  0
  4  6  1  0
  1  7  1  0
  7  8  1  0
  8  9  1  0
  9 10  1  0
 10  1  1  0
  9 11  1  0
 11 12  1  0
 12 13  2  0
 13 14  1  0
 14 15  2  0
 15 16  1  0
 16 17  2  0
 17 12  1  0
 16 18  1  0
 14 19  1  0
  6 20  1  0
 20 21  1  0
 21 22  1  0
 22 23  2  0
 23 24  1  0
 24 20  2  0
 22 25  1  0
 25 26  1  0
 26 27  1  0
 26 28  2  0
  2 29  1  0
  2 30  1  0
  3 31  1  0
  3 32  1  0
  5 33  1  0
  5 34  1  0
  6 35  1  0
  6 36  1  0
  7 37  1  0
  7 38  1  0
  8 39  1  0
  8 40  1  0
  9 41  1  0
 10 42  1  0
 10 43  1  0
 11 44  1  0
 11 45  1  0
 13 46  1  0
 17 47  1  0
 18 48  1  0
 18 49  1  0
 18 50  1  0
 19 51  1  0
 19 52  1  0
 19 53  1  0
 24 54  1  0
 25 55  1  0
 27 56  1  0
 27 57  1  0
 27 58  1  0
M  END
> <Name>
65 Martínez-Viturro et al., 2020

> <Clean Energy>
158.356597900391

> <Reference>
Martínez-Viturro et al., 2020

> <IC50>
309nM

> <Forcefield>
MMFF

> <ForcefieldBase>
MMFF

> <ForcefieldFFML>
<?xml version="1.0" encoding="UTF-8"?>
<!DOCTYPE ffml SYSTEM "Ffml.dtd">
<ffml version="1.0">
<forcefield name="65 Martínez-Viturro et al., 2020-MMFF" derivedFrom="MMFF" base="MMFF">
<atomTypes>
<atomType
 name="C100"
 element="C"
 mass="12.011"
 annotation=""/>
<atomType
 name="N101"
 element="N"
 mass="14.007"
 annotation=""/>
<atomType
 name="S102"
 element="S"
 mass="32.066"
 annotation=""/>
<atomType
 name="O103"
 element="O"
 mass="16"
 annotation=""/>
<atomType
 name="H104"
 element="H"
 mass="1.008"
 annotation=""/>
</atomTypes>
<parameters>
</parameters>
</forcefield>
</ffml>

$$$$
55 Martínez-Viturro et al., 2020
  SciTegic07212313593D

 54 58  0  0  0  0            999 V2000
   16.1968  -27.3926    0.0544 C   0  0
   16.2229  -28.7793    0.0321 N   0  0
   17.3572  -29.3610   -0.0731 C   0  0
   18.6161  -28.5587   -0.1598 C   0  0
   18.5507  -27.2286   -0.1266 C   0  0
   17.3059  -26.6577   -0.0187 N   0  0
   16.9855  -25.3237    0.0216 C   0  0
   15.6510  -25.2937    0.1193 C   0  0
   15.1745  -26.6421    0.1376 N   0  0
   19.7908  -26.3861   -0.2053 C   0  0
   17.4260  -30.7517   -0.1014 N   0  0
   16.3534  -31.5758    0.0669 C   0  0
   17.0656  -32.8546   -0.3646 C   0  0
   18.4684  -32.8801    0.3643 C   0  0  1  0  0  0
   18.6319  -31.4466   -0.2900 C   0  0
   18.1593  -34.2947   -0.2493 C   0  0
   19.1603  -35.2919    0.3575 C   0  0
   20.3042  -34.4490    0.4835 N   0  0
   19.8801  -33.2299   -0.1820 C   0  0
   21.5407  -35.0575   -0.0791 C   0  0
   22.7703  -34.1360   -0.0349 C   0  0
   23.9957  -34.5313   -0.3867 C   0  0
   24.9752  -33.4675   -0.2912 N   0  0
   24.4909  -32.3497    0.1091 C   0  0
   22.7913  -32.4603    0.4379 S   0  0
   25.2026  -31.1221    0.2660 N   0  0
   26.5245  -30.9317    0.1037 C   0  0
   26.9763  -29.7918    0.2612 O   0  0
   27.4797  -32.0417   -0.2529 C   0  0
   19.5805  -29.0587   -0.2496 H   0  0
   17.6682  -24.4749   -0.0175 H   0  0
   15.0341  -24.3968    0.1753 H   0  0
   19.5178  -25.3318   -0.1618 H   0  0
   20.3090  -26.5883   -1.1427 H   0  0
   20.4472  -26.6258    0.6312 H   0  0
   16.0097  -31.6136    1.1006 H   0  0
   15.5185  -31.3185   -0.5850 H   0  0
   16.4780  -33.7251   -0.0731 H   0  0
   17.2068  -32.8562   -1.4454 H   0  0
   19.4490  -30.9097    0.1918 H   0  0
   18.8401  -31.5463   -1.3553 H   0  0
   17.1407  -34.5930   -0.0014 H   0  0
   18.2759  -34.2636   -1.3326 H   0  0
   18.8239  -35.6643    1.3251 H   0  0
   19.3490  -36.1325   -0.3103 H   0  0
   20.5772  -32.4215    0.0384 H   0  0
   19.8354  -33.3882   -1.2596 H   0  0
   21.7680  -35.9588    0.4903 H   0  0
   21.3490  -35.3226   -1.1188 H   0  0
   24.2338  -35.5445   -0.7108 H   0  0
   24.6248  -30.2645    0.5411 H   0  0
   28.4908  -31.6415   -0.3282 H   0  0
   27.1901  -32.4778   -1.2090 H   0  0
   27.4501  -32.8096    0.5201 H   0  0
  1  2  1  0
  2  3  2  0
  3  4  1  0
  4  5  2  0
  5  6  1  0
  6  1  1  0
  6  7  1  0
  7  8  2  0
  8  9  1  0
  9  1  2  0
  5 10  1  0
  3 11  1  0
 11 12  1  0
 12 13  1  0
 13 14  1  0
 14 15  1  0
 15 11  1  0
 14 16  1  0
 16 17  1  0
 17 18  1  0
 18 19  1  0
 19 14  1  0
 18 20  1  0
 21 20  1  0
 21 22  2  0
 22 23  1  0
 23 24  2  0
 24 25  1  0
 25 21  1  0
 24 26  1  0
 26 27  1  0
 27 28  2  0
 27 29  1  0
  4 30  1  0
  7 31  1  0
  8 32  1  0
 10 33  1  0
 10 34  1  0
 10 35  1  0
 12 36  1  0
 12 37  1  0
 13 38  1  0
 13 39  1  0
 15 40  1  0
 15 41  1  0
 16 42  1  0
 16 43  1  0
 17 44  1  0
 17 45  1  0
 19 46  1  0
 19 47  1  0
 20 48  1  0
 20 49  1  0
 22 50  1  0
 26 51  1  0
 29 52  1  0
 29 53  1  0
 29 54  1  0
M  END
> <Name>
55 Martínez-Viturro et al., 2020

> <Clean Energy>
163.673385620117

> <Reference>
Martínez-Viturro et al., 2020

> <IC50>
1nM

> <Forcefield>
MMFF

> <ForcefieldBase>
MMFF

> <ForcefieldFFML>
<?xml version="1.0" encoding="UTF-8"?>
<!DOCTYPE ffml SYSTEM "Ffml.dtd">
<ffml version="1.0">
<forcefield name="55 Martínez-Viturro et al., 2020-MMFF" derivedFrom="MMFF" base="MMFF">
<atomTypes>
<atomType
 name="C100"
 element="C"
 mass="12.011"
 annotation=""/>
<atomType
 name="N101"
 element="N"
 mass="14.007"
 annotation=""/>
<atomType
 name="S102"
 element="S"
 mass="32.066"
 annotation=""/>
<atomType
 name="O103"
 element="O"
 mass="16"
 annotation=""/>
<atomType
 name="H104"
 element="H"
 mass="1.008"
 annotation=""/>
</atomTypes>
<parameters>
</parameters>
</forcefield>
</ffml>

$$$$
56 Martínez-Viturro et al., 2020
  SciTegic07212313593D

 57 61  0  0  0  0            999 V2000
   16.7365  -19.6196    0.0183 C   0  0
   16.6429  -20.9545   -0.0062 C   0  0
   17.9197  -21.7611   -0.0914 C   0  0
   19.0652  -21.0840   -0.1449 C   0  0
   19.0725  -19.6287   -0.1060 C   0  0
   17.9842  -18.9782   -0.0291 N   0  0
   20.3786  -18.8893   -0.1480 C   0  0
   18.0298  -23.2083   -0.1206 N   0  0
   17.0535  -24.1531    0.1839 C   0  0
   17.8344  -25.3775   -0.2670 C   0  0
   19.2830  -25.2205    0.3172 C   0  0  2  0  0  0
   19.2760  -23.8153   -0.3892 C   0  0
   18.9637  -26.6576   -0.2476 C   0  0
   19.9576  -27.6491    0.3732 C   0  0
   21.0983  -26.8092    0.4690 N   0  0
   20.6803  -25.6080   -0.2254 C   0  0
   22.3393  -27.4211   -0.0707 C   0  0
   23.5526  -26.4755   -0.0344 C   0  0
   15.5280  -18.7942    0.0859 C   0  0
   14.3249  -19.3591    0.1200 C   0  0
   14.2049  -20.8084    0.0912 C   0  0
   15.2972  -21.5642    0.0333 C   0  0
   24.7871  -26.8496   -0.3752 C   0  0
   25.7426  -25.7623   -0.2889 N   0  0
   25.2320  -24.6501    0.0947 C   0  0
   23.5392  -24.7924    0.4179 S   0  0
   25.9123  -23.4053    0.2381 N   0  0
   27.2308  -23.1891    0.0923 C   0  0
   28.2147  -24.2853   -0.2247 C   0  0
   27.6547  -22.0366    0.2336 O   0  0
   20.0082  -21.6257   -0.2187 H   0  0
   20.1906  -17.8163   -0.1101 H   0  0
   20.9052  -19.1330   -1.0707 H   0  0
   20.9894  -19.1809    0.7064 H   0  0
   16.8153  -24.1788    1.2472 H   0  0
   16.1387  -24.0073   -0.3905 H   0  0
   17.3689  -26.2843    0.1190 H   0  0
   17.8701  -25.4217   -1.3555 H   0  0
   20.0828  -23.1973    0.0049 H   0  0
   19.4048  -23.9394   -1.4644 H   0  0
   17.9453  -26.9407    0.0188 H   0  0
   19.0698  -26.6595   -1.3324 H   0  0
   19.6264  -27.9978    1.3513 H   0  0
   20.1369  -28.5054   -0.2769 H   0  0
   21.3898  -24.8025   -0.0358 H   0  0
   20.6238  -25.7983   -1.2972 H   0  0
   22.5735  -28.3063    0.5207 H   0  0
   22.1592  -27.7122   -1.1056 H   0  0
   15.6160  -17.7080    0.1083 H   0  0
   13.4308  -18.7377    0.1695 H   0  0
   13.2199  -21.2746    0.1172 H   0  0
   15.1987  -22.6496    0.0147 H   0  0
   25.0487  -27.8615   -0.6845 H   0  0
   25.3113  -22.5559    0.4874 H   0  0
   29.2180  -23.8650   -0.2933 H   0  0
   27.9496  -24.7484   -1.1752 H   0  0
   28.1892  -25.0366    0.5646 H   0  0
  1  2  2  0
  2  3  1  0
  3  4  2  0
  4  5  1  0
  5  6  2  0
  6  1  1  0
  5  7  1  0
  3  8  1  0
  8  9  1  0
  9 10  1  0
 10 11  1  0
 11 12  1  0
 12  8  1  0
 11 13  1  0
 13 14  1  0
 14 15  1  0
 15 16  1  0
 16 11  1  0
 15 17  1  0
 18 17  1  0
  1 19  1  0
 19 20  2  0
 20 21  1  0
 21 22  2  0
 22  2  1  0
 18 23  2  0
 23 24  1  0
 24 25  2  0
 25 26  1  0
 26 18  1  0
 25 27  1  0
 27 28  1  0
 28 29  1  0
 28 30  2  0
  4 31  1  0
  7 32  1  0
  7 33  1  0
  7 34  1  0
  9 35  1  0
  9 36  1  0
 10 37  1  0
 10 38  1  0
 12 39  1  0
 12 40  1  0
 13 41  1  0
 13 42  1  0
 14 43  1  0
 14 44  1  0
 16 45  1  0
 16 46  1  0
 17 47  1  0
 17 48  1  0
 19 49  1  0
 20 50  1  0
 21 51  1  0
 22 52  1  0
 23 53  1  0
 27 54  1  0
 29 55  1  0
 29 56  1  0
 29 57  1  0
M  END
> <Name>
56 Martínez-Viturro et al., 2020

> <Clean Energy>
149.476608276367

> <Reference>
Martínez-Viturro et al., 2020

> <IC50>
9nM

> <Forcefield>
MMFF

> <ForcefieldBase>
MMFF

> <ForcefieldFFML>
<?xml version="1.0" encoding="UTF-8"?>
<!DOCTYPE ffml SYSTEM "Ffml.dtd">
<ffml version="1.0">
<forcefield name="56 Martínez-Viturro et al., 2020-MMFF" derivedFrom="MMFF" base="MMFF">
<atomTypes>
<atomType
 name="C100"
 element="C"
 mass="12.011"
 annotation=""/>
<atomType
 name="N101"
 element="N"
 mass="14.007"
 annotation=""/>
<atomType
 name="S102"
 element="S"
 mass="32.066"
 annotation=""/>
<atomType
 name="O103"
 element="O"
 mass="16"
 annotation=""/>
<atomType
 name="H104"
 element="H"
 mass="1.008"
 annotation=""/>
</atomTypes>
<parameters>
</parameters>
</forcefield>
</ffml>

$$$$
57 Martínez-Viturro et al., 2020
  SciTegic07212313593D

 53 56  0  0  0  0            999 V2000
   17.4407  -20.0560    0.1051 C   0  0
   17.4944  -21.3300    0.0678 N   0  0
   18.7180  -21.9863   -0.0776 C   0  0
   19.8360  -21.2765   -0.1752 C   0  0
   19.7479  -19.8316   -0.1236 C   0  0
   18.6112  -19.2786    0.0081 N   0  0
   20.9900  -18.9953   -0.2201 C   0  0
   18.7760  -23.3801   -0.1162 N   0  0
   17.7036  -24.2047    0.0899 C   0  0
   18.4054  -25.4911   -0.3424 C   0  0
   19.8244  -25.4970    0.3504 C   0  0  2  0  0  0
   19.9773  -24.0777   -0.3282 C   0  0
   19.5091  -26.9130   -0.2610 C   0  0
   20.5031  -27.9208    0.3416 C   0  0
   21.6475  -27.0837    0.4757 N   0  0
   21.2304  -25.8661   -0.1936 C   0  0
   22.8897  -27.6882   -0.0808 C   0  0
   24.1112  -26.7508   -0.0344 C   0  0
   16.1128  -19.3761    0.2541 C   0  0
   25.3396  -27.1235   -0.4008 C   0  0
   26.3043  -26.0437   -0.3017 N   0  0
   25.8056  -24.9380    0.1149 C   0  0
   24.1135  -25.0798    0.4581 S   0  0
   26.4962  -23.6990    0.2778 N   0  0
   27.8125  -23.4823    0.1070 C   0  0
   28.7846  -24.5712   -0.2667 C   0  0
   28.2440  -22.3355    0.2711 O   0  0
   20.8004  -21.7710   -0.2917 H   0  0
   20.7234  -17.9400   -0.1628 H   0  0
   21.4885  -19.1924   -1.1692 H   0  0
   21.6615  -19.2450    0.6013 H   0  0
   17.3854  -24.2287    1.1321 H   0  0
   16.8531  -23.9556   -0.5446 H   0  0
   17.8285  -26.3584   -0.0214 H   0  0
   18.5181  -25.5100   -1.4264 H   0  0
   20.8077  -23.5358    0.1243 H   0  0
   20.1575  -24.1931   -1.3970 H   0  0
   18.4890  -27.2050   -0.0115 H   0  0
   19.6241  -26.8823   -1.3444 H   0  0
   20.1625  -28.2986    1.3056 H   0  0
   20.6899  -28.7573   -0.3317 H   0  0
   21.9355  -25.0629    0.0205 H   0  0
   21.1821  -26.0305   -1.2701 H   0  0
   23.1227  -28.5848    0.4935 H   0  0
   22.7041  -27.9596   -1.1200 H   0  0
   16.2566  -18.2958    0.2669 H   0  0
   15.6455  -19.6910    1.1871 H   0  0
   15.4696  -19.6466   -0.5834 H   0  0
   25.5907  -28.1293   -0.7378 H   0  0
   25.9050  -22.8550    0.5658 H   0  0
   29.7875  -24.1519   -0.3465 H   0  0
   28.4953  -25.0044   -1.2242 H   0  0
   28.7753  -25.3461    0.4998 H   0  0
  1  2  2  0
  2  3  1  0
  3  4  2  0
  4  5  1  0
  5  6  2  0
  6  1  1  0
  5  7  1  0
  3  8  1  0
  8  9  1  0
  9 10  1  0
 10 11  1  0
 11 12  1  0
 12  8  1  0
 11 13  1  0
 13 14  1  0
 14 15  1  0
 15 16  1  0
 16 11  1  0
 15 17  1  0
 18 17  1  0
  1 19  1  0
 18 20  2  0
 20 21  1  0
 21 22  2  0
 22 23  1  0
 23 18  1  0
 22 24  1  0
 24 25  1  0
 25 26  1  0
 25 27  2  0
  4 28  1  0
  7 29  1  0
  7 30  1  0
  7 31  1  0
  9 32  1  0
  9 33  1  0
 10 34  1  0
 10 35  1  0
 12 36  1  0
 12 37  1  0
 13 38  1  0
 13 39  1  0
 14 40  1  0
 14 41  1  0
 16 42  1  0
 16 43  1  0
 17 44  1  0
 17 45  1  0
 19 46  1  0
 19 47  1  0
 19 48  1  0
 20 49  1  0
 24 50  1  0
 26 51  1  0
 26 52  1  0
 26 53  1  0
M  END
> <Name>
57 Martínez-Viturro et al., 2020

> <Clean Energy>
144.787246704102

> <Reference>
Martínez-Viturro et al., 2020

> <IC50>
13nM

> <Forcefield>
MMFF

> <ForcefieldBase>
MMFF

> <ForcefieldFFML>
<?xml version="1.0" encoding="UTF-8"?>
<!DOCTYPE ffml SYSTEM "Ffml.dtd">
<ffml version="1.0">
<forcefield name="57 Martínez-Viturro et al., 2020-MMFF" derivedFrom="MMFF" base="MMFF">
<atomTypes>
<atomType
 name="C100"
 element="C"
 mass="12.011"
 annotation=""/>
<atomType
 name="N101"
 element="N"
 mass="14.007"
 annotation=""/>
<atomType
 name="S102"
 element="S"
 mass="32.066"
 annotation=""/>
<atomType
 name="O103"
 element="O"
 mass="16"
 annotation=""/>
<atomType
 name="H104"
 element="H"
 mass="1.008"
 annotation=""/>
</atomTypes>
<parameters>
</parameters>
</forcefield>
</ffml>

$$$$
58 Martínez-Viturro et al., 2020
  SciTegic07212313593D

 54 57  0  0  0  0            999 V2000
   17.4168  -19.9855    0.1057 C   0  0
   17.4339  -21.3179    0.0723 C   0  0
   18.7061  -22.0045   -0.0782 C   0  0
   19.8199  -21.2876   -0.1757 C   0  0
   19.7429  -19.8303   -0.1263 C   0  0
   18.6156  -19.2500    0.0043 N   0  0
   20.9978  -19.0129   -0.2247 C   0  0
   18.7698  -23.4006   -0.1163 N   0  0
   17.7027  -24.2338    0.0922 C   0  0
   18.4128  -25.5155   -0.3406 C   0  0
   19.8330  -25.5104    0.3493 C   0  0  2  0  0  0
   19.9753  -24.0905   -0.3297 C   0  0
   19.5190  -26.9278   -0.2600 C   0  0
   20.5141  -27.9337    0.3438 C   0  0
   21.6577  -27.0951    0.4760 N   0  0
   21.2392  -25.8784   -0.1940 C   0  0
   22.9006  -27.6975   -0.0809 C   0  0
   24.1202  -26.7574   -0.0346 C   0  0
   16.1118  -19.2623    0.2524 C   0  0
   25.3485  -27.1262   -0.4051 C   0  0
   26.3111  -26.0447   -0.3048 N   0  0
   25.8112  -24.9413    0.1166 C   0  0
   24.1201  -25.0878    0.4634 S   0  0
   26.4999  -23.7014    0.2820 N   0  0
   27.8154  -23.4816    0.1084 C   0  0
   28.7886  -24.5673   -0.2717 C   0  0
   28.2452  -22.3345    0.2756 O   0  0
   16.5067  -21.8847    0.1566 H   0  0
   20.7837  -21.7832   -0.2917 H   0  0
   20.7472  -17.9535   -0.1699 H   0  0
   21.4934  -19.2198   -1.1733 H   0  0
   21.6654  -19.2708    0.5974 H   0  0
   17.3864  -24.2596    1.1350 H   0  0
   16.8493  -23.9912   -0.5409 H   0  0
   17.8428  -26.3866   -0.0178 H   0  0
   18.5234  -25.5343   -1.4248 H   0  0
   20.8028  -23.5430    0.1215 H   0  0
   20.1547  -24.2051   -1.3987 H   0  0
   18.4992  -27.2204   -0.0099 H   0  0
   19.6338  -26.8985   -1.3435 H   0  0
   20.1742  -28.3103    1.3086 H   0  0
   20.7014  -28.7712   -0.3282 H   0  0
   21.9434  -25.0743    0.0198 H   0  0
   21.1912  -26.0434   -1.2704 H   0  0
   23.1353  -28.5938    0.4932 H   0  0
   22.7152  -27.9692   -1.1201 H   0  0
   16.2906  -18.1871    0.2603 H   0  0
   15.6352  -19.5576    1.1872 H   0  0
   15.4595  -19.5155   -0.5834 H   0  0
   25.6010  -28.1303   -0.7459 H   0  0
   25.9078  -22.8596    0.5744 H   0  0
   29.7905  -24.1458   -0.3527 H   0  0
   28.4976  -24.9976   -1.2300 H   0  0
   28.7828  -25.3449    0.4921 H   0  0
  1  2  2  0
  2  3  1  0
  3  4  2  0
  4  5  1  0
  5  6  2  0
  6  1  1  0
  5  7  1  0
  3  8  1  0
  8  9  1  0
  9 10  1  0
 10 11  1  0
 11 12  1  0
 12  8  1  0
 11 13  1  0
 13 14  1  0
 14 15  1  0
 15 16  1  0
 16 11  1  0
 15 17  1  0
 18 17  1  0
  1 19  1  0
 18 20  2  0
 20 21  1  0
 21 22  2  0
 22 23  1  0
 23 18  1  0
 22 24  1  0
 24 25  1  0
 25 26  1  0
 25 27  2  0
  2 28  1  0
  4 29  1  0
  7 30  1  0
  7 31  1  0
  7 32  1  0
  9 33  1  0
  9 34  1  0
 10 35  1  0
 10 36  1  0
 12 37  1  0
 12 38  1  0
 13 39  1  0
 13 40  1  0
 14 41  1  0
 14 42  1  0
 16 43  1  0
 16 44  1  0
 17 45  1  0
 17 46  1  0
 19 47  1  0
 19 48  1  0
 19 49  1  0
 20 50  1  0
 24 51  1  0
 26 52  1  0
 26 53  1  0
 26 54  1  0
M  END
> <Name>
58 Martínez-Viturro et al., 2020

> <Clean Energy>
144.744079589844

> <Reference>
Martínez-Viturro et al., 2020

> <IC50>
6nM

> <Forcefield>
MMFF

> <ForcefieldBase>
MMFF

> <ForcefieldFFML>
<?xml version="1.0" encoding="UTF-8"?>
<!DOCTYPE ffml SYSTEM "Ffml.dtd">
<ffml version="1.0">
<forcefield name="58 Martínez-Viturro et al., 2020-MMFF" derivedFrom="MMFF" base="MMFF">
<atomTypes>
<atomType
 name="C100"
 element="C"
 mass="12.011"
 annotation=""/>
<atomType
 name="N101"
 element="N"
 mass="14.007"
 annotation=""/>
<atomType
 name="S102"
 element="S"
 mass="32.066"
 annotation=""/>
<atomType
 name="O103"
 element="O"
 mass="16"
 annotation=""/>
<atomType
 name="H104"
 element="H"
 mass="1.008"
 annotation=""/>
</atomTypes>
<parameters>
</parameters>
</forcefield>
</ffml>

$$$$
59 Martínez-Viturro et al., 2020
  SciTegic07212313593D

 55 58  0  0  0  0            999 V2000
   17.1830  -19.8056    0.0462 C   0  0
   17.1949  -21.1402    0.0118 C   0  0
   18.4638  -21.8404   -0.1026 C   0  0
   19.5875  -21.1322   -0.1691 C   0  0
   19.5183  -19.6741   -0.1195 C   0  0
   18.3935  -19.0841   -0.0196 N   0  0
   20.7819  -18.8659   -0.1808 C   0  0
   18.5140  -23.2391   -0.1393 N   0  0
   17.4355  -24.0524    0.0594 C   0  0
   18.1341  -25.3497   -0.3443 C   0  0
   19.5500  -25.3654    0.3619 C   0  0  1  0  0  0
   19.7097  -23.9524   -0.3389 C   0  0
   19.2426  -26.8005   -0.2027 C   0  0
   20.2707  -27.7710    0.4039 C   0  0
   21.4042  -26.9112    0.4883 N   0  0
   20.9549  -25.7176   -0.2086 C   0  0
   22.6426  -27.5213   -0.0672 C   0  0
   23.8598  -26.5865   -0.0355 C   0  0
   15.9718  -19.0982    0.1450 O   0  0
   14.8445  -19.9872    0.1900 C   0  0
   25.0893  -26.9681   -0.3874 C   0  0
   26.0551  -25.8916   -0.2958 N   0  0
   25.5567  -24.7792    0.1025 C   0  0
   23.8589  -24.9101    0.4314 S   0  0
   26.2533  -23.5432    0.2590 N   0  0
   27.5734  -23.3383    0.1012 C   0  0
   28.5423  -24.4383   -0.2498 C   0  0
   28.0119  -22.1934    0.2591 O   0  0
   16.2613  -21.6999    0.0689 H   0  0
   20.5505  -21.6348   -0.2596 H   0  0
   20.5379  -17.8048   -0.1315 H   0  0
   21.3028  -19.0754   -1.1151 H   0  0
   21.4239  -19.1300    0.6596 H   0  0
   17.1002  -24.0604    1.0965 H   0  0
   16.5971  -23.8058   -0.5921 H   0  0
   17.5454  -26.2068   -0.0174 H   0  0
   18.2575  -25.3847   -1.4268 H   0  0
   20.5441  -23.4098    0.1054 H   0  0
   19.8889  -24.0853   -1.4058 H   0  0
   18.2345  -27.1028    0.0808 H   0  0
   19.3300  -26.7985   -1.2892 H   0  0
   19.9597  -28.1274    1.3858 H   0  0
   20.4572  -28.6228   -0.2501 H   0  0
   21.6487  -24.8959   -0.0306 H   0  0
   20.8873  -25.9113   -1.2791 H   0  0
   22.8780  -28.4122    0.5150 H   0  0
   22.4524  -27.8032   -1.1028 H   0  0
   13.9256  -19.4060    0.2663 H   0  0
   14.9324  -20.6426    1.0565 H   0  0
   14.8190  -20.5886   -0.7188 H   0  0
   25.3398  -27.9792   -0.7086 H   0  0
   25.6646  -22.6917    0.5297 H   0  0
   29.5491  -24.0270   -0.3221 H   0  0
   28.2611  -24.8794   -1.2061 H   0  0
   28.5184  -25.2051    0.5245 H   0  0
  1  2  2  0
  2  3  1  0
  3  4  2  0
  4  5  1  0
  5  6  2  0
  6  1  1  0
  5  7  1  0
  3  8  1  0
  8  9  1  0
  9 10  1  0
 10 11  1  0
 11 12  1  0
 12  8  1  0
 11 13  1  0
 13 14  1  0
 14 15  1  0
 15 16  1  0
 16 11  1  0
 15 17  1  0
 18 17  1  0
  1 19  1  0
 19 20  1  0
 18 21  2  0
 21 22  1  0
 22 23  2  0
 23 24  1  0
 24 18  1  0
 23 25  1  0
 25 26  1  0
 26 27  1  0
 26 28  2  0
  2 29  1  0
  4 30  1  0
  7 31  1  0
  7 32  1  0
  7 33  1  0
  9 34  1  0
  9 35  1  0
 10 36  1  0
 10 37  1  0
 12 38  1  0
 12 39  1  0
 13 40  1  0
 13 41  1  0
 14 42  1  0
 14 43  1  0
 16 44  1  0
 16 45  1  0
 17 46  1  0
 17 47  1  0
 20 48  1  0
 20 49  1  0
 20 50  1  0
 21 51  1  0
 25 52  1  0
 27 53  1  0
 27 54  1  0
 27 55  1  0
M  END
> <Name>
59 Martínez-Viturro et al., 2020

> <Clean Energy>
145.334869384766

> <Reference>
Martínez-Viturro et al., 2020

> <IC50>
6nM

> <Forcefield>
MMFF

> <ForcefieldBase>
MMFF

> <ForcefieldFFML>
<?xml version="1.0" encoding="UTF-8"?>
<!DOCTYPE ffml SYSTEM "Ffml.dtd">
<ffml version="1.0">
<forcefield name="59 Martínez-Viturro et al., 2020-MMFF" derivedFrom="MMFF" base="MMFF">
<atomTypes>
<atomType
 name="C100"
 element="C"
 mass="12.011"
 annotation=""/>
<atomType
 name="N101"
 element="N"
 mass="14.007"
 annotation=""/>
<atomType
 name="O102"
 element="O"
 mass="16"
 annotation=""/>
<atomType
 name="S103"
 element="S"
 mass="32.066"
 annotation=""/>
<atomType
 name="H104"
 element="H"
 mass="1.008"
 annotation=""/>
</atomTypes>
<parameters>
</parameters>
</forcefield>
</ffml>

$$$$
60 Martínez-Viturro et al., 2020
  SciTegic07212313593D

 54 57  0  0  0  0            999 V2000
   17.0115  -19.3402    0.0389 C   0  0
   16.9665  -20.6736    0.0260 C   0  0
   18.2089  -21.4172   -0.1274 C   0  0
   19.3500  -20.7481   -0.2482 C   0  0
   19.3364  -19.2917   -0.2186 C   0  0
   18.2384  -18.6619   -0.0845 N   0  0
   20.6240  -18.5318   -0.3401 C   0  0
   18.2281  -22.8160   -0.1456 N   0  0
   17.1506  -23.6173    0.1191 C   0  0
   17.8252  -24.9290   -0.2879 C   0  0
   19.2708  -24.9294    0.3537 C   0  0  2  0  0  0
   19.4092  -23.5402   -0.3821 C   0  0
   18.9334  -26.3656   -0.1913 C   0  0
   19.9625  -27.3495    0.3880 C   0  0
   21.1006  -26.4999    0.4638 N   0  0
   20.6606  -25.3098   -0.2402 C   0  0
   22.3361  -27.1241   -0.0797 C   0  0
   23.5602  -26.1982   -0.0444 C   0  0
   15.7507  -18.5485    0.1777 C   0  0
   14.6578  -19.3762    0.3215 F   0  0
   15.6155  -17.7491   -0.9391 F   0  0
   15.8763  -17.6942    1.2528 F   0  0
   24.7885  -26.5895   -0.3900 C   0  0
   25.7619  -25.5199   -0.2965 N   0  0
   25.2702  -24.4031    0.0976 C   0  0
   23.5697  -24.5210    0.4200 S   0  0
   25.9750  -23.1716    0.2536 N   0  0
   27.2967  -22.9755    0.0978 C   0  0
   28.2591  -24.0820   -0.2503 C   0  0
   27.7422  -21.8330    0.2545 O   0  0
   16.0160  -21.1973    0.1285 H   0  0
   20.2907  -21.2853   -0.3688 H   0  0
   20.4204  -17.4619   -0.2978 H   0  0
   21.1006  -18.7732   -1.2902 H   0  0
   21.2878  -18.8074    0.4794 H   0  0
   16.8614  -23.6008    1.1700 H   0  0
   16.2858  -23.3786   -0.5000 H   0  0
   17.2504  -25.7763    0.0861 H   0  0
   17.8985  -24.9899   -1.3737 H   0  0
   20.2657  -22.9940    0.0130 H   0  0
   19.5405  -23.6980   -1.4526 H   0  0
   17.9299  -26.6534    0.1223 H   0  0
   18.9898  -26.3704   -1.2798 H   0  0
   19.6642  -27.7146    1.3708 H   0  0
   20.1328  -28.1953   -0.2780 H   0  0
   21.3707  -24.4974   -0.0856 H   0  0
   20.5701  -25.5158   -1.3068 H   0  0
   22.5601  -28.0137    0.5090 H   0  0
   22.1505  -27.4102   -1.1150 H   0  0
   25.0329  -27.6031   -0.7079 H   0  0
   25.3915  -22.3159    0.5224 H   0  0
   29.2686  -23.6772   -0.3215 H   0  0
   27.9766  -24.5224   -1.2066 H   0  0
   28.2290  -24.8477    0.5249 H   0  0
  1  2  2  0
  2  3  1  0
  3  4  2  0
  4  5  1  0
  5  6  2  0
  6  1  1  0
  5  7  1  0
  3  8  1  0
  8  9  1  0
  9 10  1  0
 10 11  1  0
 11 12  1  0
 12  8  1  0
 11 13  1  0
 13 14  1  0
 14 15  1  0
 15 16  1  0
 16 11  1  0
 15 17  1  0
 18 17  1  0
  1 19  1  0
 19 20  1  0
 19 21  1  0
 19 22  1  0
 18 23  2  0
 23 24  1  0
 24 25  2  0
 25 26  1  0
 26 18  1  0
 25 27  1  0
 27 28  1  0
 28 29  1  0
 28 30  2  0
  2 31  1  0
  4 32  1  0
  7 33  1  0
  7 34  1  0
  7 35  1  0
  9 36  1  0
  9 37  1  0
 10 38  1  0
 10 39  1  0
 12 40  1  0
 12 41  1  0
 13 42  1  0
 13 43  1  0
 14 44  1  0
 14 45  1  0
 16 46  1  0
 16 47  1  0
 17 48  1  0
 17 49  1  0
 23 50  1  0
 27 51  1  0
 29 52  1  0
 29 53  1  0
 29 54  1  0
M  END
> <Name>
60 Martínez-Viturro et al., 2020

> <Clean Energy>
156.826812744141

> <Reference>
Martínez-Viturro et al., 2020

> <IC50>
19nM

> <Forcefield>
MMFF

> <ForcefieldBase>
MMFF

> <ForcefieldFFML>
<?xml version="1.0" encoding="UTF-8"?>
<!DOCTYPE ffml SYSTEM "Ffml.dtd">
<ffml version="1.0">
<forcefield name="60 Martínez-Viturro et al., 2020-MMFF" derivedFrom="MMFF" base="MMFF">
<atomTypes>
<atomType
 name="C100"
 element="C"
 mass="12.011"
 annotation=""/>
<atomType
 name="N101"
 element="N"
 mass="14.007"
 annotation=""/>
<atomType
 name="F102"
 element="F"
 mass="18.998"
 annotation=""/>
<atomType
 name="S103"
 element="S"
 mass="32.066"
 annotation=""/>
<atomType
 name="O104"
 element="O"
 mass="16"
 annotation=""/>
<atomType
 name="H105"
 element="H"
 mass="1.008"
 annotation=""/>
</atomTypes>
<parameters>
</parameters>
</forcefield>
</ffml>

$$$$
61 Martínez-Viturro et al., 2020
  SciTegic07212313593D

 54 57  0  0  0  0            999 V2000
   17.4022  -20.0600    0.1052 C   0  0
   17.4802  -21.3321    0.0652 N   0  0
   18.7160  -21.9859   -0.0776 C   0  0
   19.8456  -21.2812   -0.1726 C   0  0
   19.7890  -19.8328   -0.1239 C   0  0
   18.6107  -19.2369    0.0095 C   0  0
   21.0478  -19.0205   -0.2186 C   0  0
   18.7760  -23.3788   -0.1168 N   0  0
   17.7020  -24.2024    0.0862 C   0  0
   18.4043  -25.4891   -0.3447 C   0  0
   19.8219  -25.4973    0.3514 C   0  0  2  0  0  0
   19.9762  -24.0776   -0.3262 C   0  0
   19.5073  -26.9137   -0.2587 C   0  0
   20.5034  -27.9195    0.3435 C   0  0
   21.6472  -27.0810    0.4758 N   0  0
   21.2283  -25.8640   -0.1939 C   0  0
   22.8891  -27.6853   -0.0812 C   0  0
   24.1106  -26.7486   -0.0350 C   0  0
   16.0642  -19.4000    0.2509 C   0  0
   25.3386  -27.1217   -0.4021 C   0  0
   26.3040  -26.0427   -0.3025 N   0  0
   25.8062  -24.9370    0.1152 C   0  0
   24.1137  -25.0780    0.4587 S   0  0
   26.4980  -23.6987    0.2792 N   0  0
   27.8143  -23.4829    0.1076 C   0  0
   28.7854  -24.5720   -0.2684 C   0  0
   28.2470  -22.3367    0.2731 O   0  0
   20.8028  -21.7901   -0.2858 H   0  0
   18.5429  -18.1497    0.0475 H   0  0
   20.8016  -17.9602   -0.1636 H   0  0
   21.5449  -19.2289   -1.1661 H   0  0
   21.7122  -19.2819    0.6050 H   0  0
   17.3809  -24.2266    1.1275 H   0  0
   16.8534  -23.9524   -0.5506 H   0  0
   17.8258  -26.3560   -0.0256 H   0  0
   18.5196  -25.5075   -1.4285 H   0  0
   20.8062  -23.5364    0.1280 H   0  0
   20.1583  -24.1928   -1.3947 H   0  0
   18.4879  -27.2068   -0.0078 H   0  0
   19.6209  -26.8836   -1.3423 H   0  0
   20.1643  -28.2971    1.3081 H   0  0
   20.6905  -28.7564   -0.3294 H   0  0
   21.9323  -25.0597    0.0196 H   0  0
   21.1795  -26.0287   -1.2703 H   0  0
   23.1221  -28.5822    0.4926 H   0  0
   22.7031  -27.9563   -1.1205 H   0  0
   16.1920  -18.3177    0.2662 H   0  0
   15.5984  -19.7235    1.1818 H   0  0
   15.4278  -19.6783   -0.5892 H   0  0
   25.5890  -28.1273   -0.7399 H   0  0
   25.9076  -22.8546    0.5687 H   0  0
   29.7885  -24.1534   -0.3484 H   0  0
   28.4949  -25.0036   -1.2264 H   0  0
   28.7760  -25.3481    0.4970 H   0  0
  1  2  2  0
  2  3  1  0
  3  4  2  0
  4  5  1  0
  5  6  2  0
  6  1  1  0
  5  7  1  0
  3  8  1  0
  8  9  1  0
  9 10  1  0
 10 11  1  0
 11 12  1  0
 12  8  1  0
 11 13  1  0
 13 14  1  0
 14 15  1  0
 15 16  1  0
 16 11  1  0
 15 17  1  0
 18 17  1  0
  1 19  1  0
 18 20  2  0
 20 21  1  0
 21 22  2  0
 22 23  1  0
 23 18  1  0
 22 24  1  0
 24 25  1  0
 25 26  1  0
 25 27  2  0
  4 28  1  0
  6 29  1  0
  7 30  1  0
  7 31  1  0
  7 32  1  0
  9 33  1  0
  9 34  1  0
 10 35  1  0
 10 36  1  0
 12 37  1  0
 12 38  1  0
 13 39  1  0
 13 40  1  0
 14 41  1  0
 14 42  1  0
 16 43  1  0
 16 44  1  0
 17 45  1  0
 17 46  1  0
 19 47  1  0
 19 48  1  0
 19 49  1  0
 20 50  1  0
 24 51  1  0
 26 52  1  0
 26 53  1  0
 26 54  1  0
M  END
> <Name>
61 Martínez-Viturro et al., 2020

> <Clean Energy>
144.769805908203

> <Reference>
Martínez-Viturro et al., 2020

> <IC50>
4nM

> <Forcefield>
MMFF

> <ForcefieldBase>
MMFF

> <ForcefieldFFML>
<?xml version="1.0" encoding="UTF-8"?>
<!DOCTYPE ffml SYSTEM "Ffml.dtd">
<ffml version="1.0">
<forcefield name="61 Martínez-Viturro et al., 2020-MMFF" derivedFrom="MMFF" base="MMFF">
<atomTypes>
<atomType
 name="C100"
 element="C"
 mass="12.011"
 annotation=""/>
<atomType
 name="N101"
 element="N"
 mass="14.007"
 annotation=""/>
<atomType
 name="S102"
 element="S"
 mass="32.066"
 annotation=""/>
<atomType
 name="O103"
 element="O"
 mass="16"
 annotation=""/>
<atomType
 name="H104"
 element="H"
 mass="1.008"
 annotation=""/>
</atomTypes>
<parameters>
</parameters>
</forcefield>
</ffml>

$$$$
62 Martínez-Viturro et al., 2020
  SciTegic07212313593D

 55 58  0  0  0  0            999 V2000
   17.5903  -19.9807   -0.0039 C   0  0
   17.6004  -21.3054    0.1581 C   0  0
   18.8832  -22.0172    0.2129 C   0  0
   20.0010  -21.3309    0.0978 C   0  0
   19.9274  -19.8645   -0.0791 C   0  0
   18.7920  -19.2735   -0.1218 N   0  0
   21.1802  -19.0578   -0.2116 C   0  0
   18.8542  -23.5265    0.3873 C   0  0  1  0  0  0
   17.6427  -24.1060   -0.2474 C   0  0
   18.1017  -25.5414   -0.5377 C   0  0
   19.4072  -25.8386    0.2701 C   0  0  1  0  0  0
   20.0003  -24.4023   -0.1170 C   0  0
   19.5066  -27.3545   -0.1339 C   0  0
   20.6989  -28.0180    0.4950 C   0  0
   21.6254  -26.9837    0.4531 N   0  0
   20.8941  -25.9668   -0.3649 C   0  0
   22.8860  -27.5311   -0.1176 C   0  0
   24.0586  -26.5941   -0.1059 C   0  0
   16.2771  -19.2508   -0.0590 C   0  0
   25.2939  -26.9785   -0.4310 C   0  0
   26.2492  -25.9111   -0.3286 N   0  0
   25.7417  -24.8001    0.0578 C   0  0
   24.0215  -24.9284    0.3465 S   0  0
   26.4482  -23.5742    0.2331 N   0  0
   27.7770  -23.3888    0.1037 C   0  0
   28.7416  -24.4998   -0.2354 C   0  0
   28.2288  -22.2520    0.2785 O   0  0
   16.6634  -21.8547    0.2490 H   0  0
   20.9662  -21.8361    0.1325 H   0  0
   20.9241  -18.0054   -0.3331 H   0  0
   21.7413  -19.3975   -1.0822 H   0  0
   21.7893  -19.1820    0.6838 H   0  0
   18.7656  -23.7148    1.4572 H   0  0
   16.7915  -24.0909    0.4333 H   0  0
   17.3839  -23.5782   -1.1654 H   0  0
   17.3211  -26.2408   -0.2385 H   0  0
   18.3000  -25.6518   -1.6038 H   0  0
   20.9346  -24.1923    0.4036 H   0  0
   20.1513  -24.2988   -1.1915 H   0  0
   18.6026  -27.8678    0.1940 H   0  0
   19.5929  -27.4265   -1.2181 H   0  0
   20.4911  -28.3287    1.5189 H   0  0
   21.0318  -28.8781   -0.0859 H   0  0
   21.4072  -25.0064   -0.3162 H   0  0
   20.8321  -26.2940   -1.4028 H   0  0
   23.1579  -28.4169    0.4564 H   0  0
   22.6918  -27.8135   -1.1523 H   0  0
   16.4588  -18.1847   -0.1944 H   0  0
   15.7326  -19.4108    0.8716 H   0  0
   15.6864  -19.6271   -0.8943 H   0  0
   25.5502  -27.9917   -0.7404 H   0  0
   25.8653  -22.7155    0.4933 H   0  0
   29.7546  -24.1002   -0.2832 H   0  0
   28.4757  -24.9305   -1.2008 H   0  0
   28.6920  -25.2718    0.5325 H   0  0
  1  2  2  0
  2  3  1  0
  3  4  2  0
  4  5  1  0
  5  6  2  0
  6  1  1  0
  5  7  1  0
  3  8  1  0
  8  9  1  0
  9 10  1  0
 10 11  1  0
 11 12  1  0
 12  8  1  0
 11 13  1  0
 13 14  1  0
 14 15  1  0
 15 16  1  0
 16 11  1  0
 15 17  1  0
 18 17  1  0
  1 19  1  0
 18 20  2  0
 20 21  1  0
 21 22  2  0
 22 23  1  0
 23 18  1  0
 22 24  1  0
 24 25  1  0
 25 26  1  0
 25 27  2  0
  2 28  1  0
  4 29  1  0
  7 30  1  0
  7 31  1  0
  7 32  1  0
  8 33  1  0
  9 34  1  0
  9 35  1  0
 10 36  1  0
 10 37  1  0
 12 38  1  0
 12 39  1  0
 13 40  1  0
 13 41  1  0
 14 42  1  0
 14 43  1  0
 16 44  1  0
 16 45  1  0
 17 46  1  0
 17 47  1  0
 19 48  1  0
 19 49  1  0
 19 50  1  0
 20 51  1  0
 24 52  1  0
 26 53  1  0
 26 54  1  0
 26 55  1  0
M  END
> <Name>
62 Martínez-Viturro et al., 2020

> <Clean Energy>
157.526931762695

> <Reference>
Martínez-Viturro et al., 2020

> <IC50>
66nM

> <Forcefield>
MMFF

> <ForcefieldBase>
MMFF

> <ForcefieldFFML>
<?xml version="1.0" encoding="UTF-8"?>
<!DOCTYPE ffml SYSTEM "Ffml.dtd">
<ffml version="1.0">
<forcefield name="62 Martínez-Viturro et al., 2020-MMFF" derivedFrom="MMFF" base="MMFF">
<atomTypes>
<atomType
 name="C100"
 element="C"
 mass="12.011"
 annotation=""/>
<atomType
 name="N101"
 element="N"
 mass="14.007"
 annotation=""/>
<atomType
 name="S102"
 element="S"
 mass="32.066"
 annotation=""/>
<atomType
 name="O103"
 element="O"
 mass="16"
 annotation=""/>
<atomType
 name="H104"
 element="H"
 mass="1.008"
 annotation=""/>
</atomTypes>
<parameters>
</parameters>
</forcefield>
</ffml>

$$$$
63 Martínez-Viturro et al., 2020
  SciTegic07212313593D

 53 56  0  0  0  0            999 V2000
   17.6344  -20.0582    0.0369 C   0  0
   17.5923  -21.3799    0.1966 C   0  0
   18.8268  -22.1469    0.3185 C   0  0
   19.9874  -21.4978    0.2582 C   0  0
   19.9700  -20.0129    0.0827 C   0  0
   18.8618  -19.3871   -0.0208 N   0  0
   21.2542  -19.2366   -0.0099 C   0  0
   18.7104  -23.6775    0.3922 C   0  0  1  0  0  0
   18.2460  -24.1153   -0.9995 C   0  0
   18.2818  -25.5242   -0.8841 O   0  0
   19.5154  -25.8405   -0.1758 C   0  0  1  0  0  0
   20.0145  -24.4651    0.4430 C   0  0
   19.2656  -27.0280    0.7660 C   0  0
   20.6931  -27.5191    1.0936 C   0  0
   21.5603  -26.7058    0.2072 N   0  0
   20.7002  -26.3923   -0.9693 C   0  0
   22.8002  -27.4382   -0.1096 C   0  0
   23.9886  -26.5227   -0.1624 C   0  0
   16.3515  -19.2896   -0.0916 C   0  0
   25.2266  -26.9382   -0.4296 C   0  0
   26.1928  -25.8759   -0.3498 N   0  0
   25.6911  -24.7418   -0.0273 C   0  0
   23.9574  -24.8331    0.2009 S   0  0
   26.4169  -23.5233    0.1383 N   0  0
   27.7553  -23.3715    0.0644 C   0  0
   28.7077  -24.5134   -0.2010 C   0  0
   28.2271  -22.2415    0.2313 O   0  0
   16.6303  -21.8909    0.2363 H   0  0
   20.9312  -22.0377    0.3350 H   0  0
   21.0307  -18.1772   -0.1350 H   0  0
   21.8314  -19.5890   -0.8648 H   0  0
   21.8327  -19.3801    0.9026 H   0  0
   18.0151  -23.9942    1.1697 H   0  0
   17.2377  -23.7598   -1.2118 H   0  0
   18.9268  -23.7629   -1.7744 H   0  0
   20.3764  -24.5865    1.4640 H   0  0
   20.7918  -24.0038   -0.1661 H   0  0
   18.7445  -26.7089    1.6687 H   0  0
   18.6880  -27.8072    0.2687 H   0  0
   20.9337  -27.3409    2.1417 H   0  0
   20.7985  -28.5810    0.8716 H   0  0
   21.1467  -25.6474   -1.6279 H   0  0
   20.4408  -27.2797   -1.5467 H   0  0
   22.9700  -28.1933    0.6579 H   0  0
   22.6854  -27.9238   -1.0787 H   0  0
   16.5732  -18.2295   -0.2146 H   0  0
   15.7502  -19.4326    0.8063 H   0  0
   15.7982  -19.6476   -0.9598 H   0  0
   25.4786  -27.9685   -0.6807 H   0  0
   25.8424  -22.6436    0.3410 H   0  0
   29.7310  -24.1383   -0.2133 H   0  0
   28.4750  -24.9646   -1.1656 H   0  0
   28.6053  -25.2625    0.5842 H   0  0
  1  2  2  0
  2  3  1  0
  3  4  2  0
  4  5  1  0
  5  6  2  0
  6  1  1  0
  5  7  1  0
  3  8  1  0
  8  9  1  0
  9 10  1  0
 10 11  1  0
 11 12  1  0
 12  8  1  0
 11 13  1  0
 13 14  1  0
 14 15  1  0
 15 16  1  0
 16 11  1  0
 15 17  1  0
 18 17  1  0
  1 19  1  0
 18 20  2  0
 20 21  1  0
 21 22  2  0
 22 23  1  0
 23 18  1  0
 22 24  1  0
 24 25  1  0
 25 26  1  0
 25 27  2  0
  2 28  1  0
  4 29  1  0
  7 30  1  0
  7 31  1  0
  7 32  1  0
  8 33  1  0
  9 34  1  0
  9 35  1  0
 12 36  1  0
 12 37  1  0
 13 38  1  0
 13 39  1  0
 14 40  1  0
 14 41  1  0
 16 42  1  0
 16 43  1  0
 17 44  1  0
 17 45  1  0
 19 46  1  0
 19 47  1  0
 19 48  1  0
 20 49  1  0
 24 50  1  0
 26 51  1  0
 26 52  1  0
 26 53  1  0
M  END
> <Name>
63 Martínez-Viturro et al., 2020

> <Clean Energy>
88.9580459594727

> <Reference>
Martínez-Viturro et al., 2020

> <IC50>
21nM

> <Forcefield>
MMFF

> <ForcefieldBase>
MMFF

> <ForcefieldFFML>
<?xml version="1.0" encoding="UTF-8"?>
<!DOCTYPE ffml SYSTEM "Ffml.dtd">
<ffml version="1.0">
<forcefield name="63 Martínez-Viturro et al., 2020-MMFF" derivedFrom="MMFF" base="MMFF">
<atomTypes>
<atomType
 name="C100"
 element="C"
 mass="12.011"
 annotation=""/>
<atomType
 name="N101"
 element="N"
 mass="14.007"
 annotation=""/>
<atomType
 name="O102"
 element="O"
 mass="16"
 annotation=""/>
<atomType
 name="S103"
 element="S"
 mass="32.066"
 annotation=""/>
<atomType
 name="H104"
 element="H"
 mass="1.008"
 annotation=""/>
</atomTypes>
<parameters>
</parameters>
</forcefield>
</ffml>

$$$$
64 Martínez-Viturro et al., 2020
  SciTegic07212313593D

 52 55  0  0  0  0            999 V2000
   18.9387  -26.2063   -0.6717 C   0  0
   18.5823  -27.4204    0.2126 C   0  0
   19.8194  -28.3399    0.1495 C   0  0
   20.8778  -27.3997   -0.1582 N   0  0
   20.2625  -26.1113    0.1713 C   0  0
   22.1362  -27.8028    0.5287 C   0  0
   23.3442  -26.8956    0.3308 C   0  0
   19.0234  -24.6250   -0.2522 C   0  0
   17.7792  -24.3354   -0.9510 C   0  0
   17.4075  -25.6741   -0.5780 C   0  0
   16.8976  -23.2419   -0.4003 C   0  0
   17.3889  -22.0271   -0.1797 C   0  0
   16.4916  -20.9649    0.2829 C   0  0
   15.2479  -21.1963    0.4576 N   0  0
   14.6997  -22.4723    0.2231 C   0  0
   15.4714  -23.4744   -0.1889 C   0  0
   17.0306  -19.5874    0.5321 C   0  0
   13.2290  -22.6970    0.4342 C   0  0
   24.5900  -27.2919    0.5991 C   0  0
   25.5672  -26.2573    0.3782 N   0  0
   25.0680  -25.1503   -0.0285 C   0  0
   23.3311  -25.2468   -0.2132 S   0  0
   25.7961  -23.9474   -0.2887 N   0  0
   27.1305  -23.7777   -0.1833 C   0  0
   28.0783  -24.8822    0.2185 C   0  0
   27.6012  -22.6609   -0.4265 O   0  0
   18.3926  -27.1042    1.2383 H   0  0
   17.7038  -27.9337   -0.1783 H   0  0
   19.9945  -28.8343    1.1050 H   0  0
   19.7157  -29.0899   -0.6347 H   0  0
   20.0554  -26.0248    1.2380 H   0  0
   20.8840  -25.2746   -0.1477 H   0  0
   21.9288  -27.8481    1.5979 H   0  0
   22.4059  -28.7953    0.1680 H   0  0
   18.9739  -24.4525    0.8229 H   0  0
   19.8895  -24.1071   -0.6643 H   0  0
   17.9279  -24.2374   -2.0264 H   0  0
   16.9839  -25.7440    0.4239 H   0  0
   16.7367  -26.1533   -1.2910 H   0  0
   18.4474  -21.8230   -0.3409 H   0  0
   15.0430  -24.4607   -0.3671 H   0  0
   16.2237  -18.9364    0.8685 H   0  0
   17.4562  -19.1909   -0.3897 H   0  0
   17.8039  -19.6325    1.2990 H   0  0
   12.9831  -23.7343    0.2069 H   0  0
   12.6622  -22.0374   -0.2228 H   0  0
   12.9735  -22.4827    1.4719 H   0  0
   24.8414  -28.2933    0.9487 H   0  0
   25.2256  -23.0966   -0.5980 H   0  0
   29.0987  -24.4992    0.2316 H   0  0
   28.0073  -25.7010   -0.4975 H   0  0
   27.8142  -25.2449    1.2119 H   0  0
  1  2  1  0
  2  3  1  0
  3  4  1  0
  4  5  1  0
  5  1  1  0
  4  6  1  0
  7  6  1  0
  1  8  1  0
  8  9  1  0
  9 10  1  0
 10  1  1  0
  9 11  1  0
 11 12  2  0
 12 13  1  0
 13 14  2  0
 14 15  1  0
 15 16  2  0
 16 11  1  0
 13 17  1  0
 15 18  1  0
  7 19  2  0
 19 20  1  0
 20 21  2  0
 21 22  1  0
 22  7  1  0
 21 23  1  0
 23 24  1  0
 24 25  1  0
 24 26  2  0
  2 27  1  0
  2 28  1  0
  3 29  1  0
  3 30  1  0
  5 31  1  0
  5 32  1  0
  6 33  1  0
  6 34  1  0
  8 35  1  0
  8 36  1  0
  9 37  1  0
 10 38  1  0
 10 39  1  0
 12 40  1  0
 16 41  1  0
 17 42  1  0
 17 43  1  0
 17 44  1  0
 18 45  1  0
 18 46  1  0
 18 47  1  0
 19 48  1  0
 23 49  1  0
 25 50  1  0
 25 51  1  0
 25 52  1  0
M  END
> <Name>
64 Martínez-Viturro et al., 2020

> <Clean Energy>
132.830276489258

> <Reference>
Martínez-Viturro et al., 2020

> <IC50>
36nM

> <Forcefield>
MMFF

> <ForcefieldBase>
MMFF

> <ForcefieldFFML>
<?xml version="1.0" encoding="UTF-8"?>
<!DOCTYPE ffml SYSTEM "Ffml.dtd">
<ffml version="1.0">
<forcefield name="64 Martínez-Viturro et al., 2020-MMFF" derivedFrom="MMFF" base="MMFF">
<atomTypes>
<atomType
 name="C100"
 element="C"
 mass="12.011"
 annotation=""/>
<atomType
 name="N101"
 element="N"
 mass="14.007"
 annotation=""/>
<atomType
 name="S102"
 element="S"
 mass="32.066"
 annotation=""/>
<atomType
 name="O103"
 element="O"
 mass="16"
 annotation=""/>
<atomType
 name="H104"
 element="H"
 mass="1.008"
 annotation=""/>
</atomTypes>
<parameters>
</parameters>
</forcefield>
</ffml>

$$$$
69 Martínez-Viturro et al., 2020
  SciTegic07212313593D

 59 62  0  0  0  0            999 V2000
   27.4334  -10.4877   -0.2986 C   0  0  2  0  0  0
   27.1532  -11.8820    0.3868 C   0  0
   28.1557  -12.9133   -0.1652 C   0  0
   29.3006  -12.0879   -0.3316 N   0  0
   28.8649  -10.8249    0.2648 C   0  0
   30.5606  -12.6989    0.2379 C   0  0
   27.4437   -9.0453    0.3286 C   0  0
   26.1349   -8.3083    0.0073 C   0  0
   25.2530   -9.4286   -0.3829 C   0  0  1  0  0  0
   25.9463  -10.5887    0.3002 C   0  0
   23.7971   -9.0777    0.0304 C   0  0
   22.8513  -10.1365   -0.1727 O   0  0
   31.8744  -11.8899    0.0421 C   0  0
   33.4527  -12.5507    0.3566 S   0  0
   34.2055  -11.0425   -0.1220 C   0  0
   33.3452  -10.1636   -0.4675 N   0  0
   31.9818  -10.6263   -0.3899 C   0  0
   35.5952  -10.7953   -0.1430 N   0  0
   36.4995  -11.7528    0.0713 C   0  0
   37.9618  -11.4121    0.0302 C   0  0
   36.1507  -12.9183    0.2844 O   0  0
   21.5284   -9.6192   -0.0780 C   0  0
   21.3089   -8.3147    0.0990 C   0  0
   19.9322   -7.8156    0.1736 C   0  0
   18.9488   -8.6188    0.0768 N   0  0
   19.1457  -10.0023   -0.1030 C   0  0
   20.3773  -10.5083   -0.1848 C   0  0
   19.6787   -6.3460    0.3539 C   0  0
   17.9561  -10.9115   -0.2054 C   0  0
   27.2769  -11.7916    1.4660 H   0  0
   26.1360  -12.2030    0.1628 H   0  0
   28.3388  -13.7187    0.5460 H   0  0
   27.8206  -13.3342   -1.1132 H   0  0
   28.8213  -10.9239    1.3494 H   0  0
   29.5630  -10.0308   -0.0003 H   0  0
   30.4096  -12.8307    1.3093 H   0  0
   30.6982  -13.6725   -0.2326 H   0  0
   27.5536   -9.1256    1.4101 H   0  0
   28.2821   -8.4821   -0.0815 H   0  0
   25.7487   -7.7837    0.8812 H   0  0
   26.2669   -7.6019   -0.8122 H   0  0
   25.2991   -9.5654   -1.4632 H   0  0
   25.9465  -10.4677    1.3835 H   0  0
   25.4784  -11.5383    0.0403 H   0  0
   23.7965   -8.8189    1.0892 H   0  0
   23.4751   -8.2164   -0.5549 H   0  0
   31.1236  -10.0093   -0.6564 H   0  0
   35.9371   -9.8005   -0.3385 H   0  0
   38.5499  -12.3087    0.2258 H   0  0
   38.1820  -10.6612    0.7891 H   0  0
   38.2163  -11.0189   -0.9540 H   0  0
   22.1479   -7.6246    0.1876 H   0  0
   20.5223  -11.5788   -0.3303 H   0  0
   18.6046   -6.1634    0.3870 H   0  0
   20.1145   -5.7965   -0.4805 H   0  0
   20.1327   -6.0102    1.2863 H   0  0
   18.2939  -11.9388   -0.3411 H   0  0
   17.3441  -10.6153   -1.0574 H   0  0
   17.3650  -10.8416    0.7078 H   0  0
  1  2  1  0
  2  3  1  0
  3  4  1  0
  4  5  1  0
  5  1  1  0
  4  6  1  0
  1  7  1  0
  7  8  1  0
  8  9  1  0
  9 10  1  0
 10  1  1  0
  9 11  1  0
 11 12  1  0
  6 13  1  0
 13 14  1  0
 14 15  1  0
 15 16  2  0
 16 17  1  0
 17 13  2  0
 15 18  1  0
 18 19  1  0
 19 20  1  0
 19 21  2  0
 12 22  1  0
 22 23  2  0
 23 24  1  0
 24 25  2  0
 25 26  1  0
 26 27  2  0
 27 22  1  0
 24 28  1  0
 26 29  1  0
  2 30  1  0
  2 31  1  0
  3 32  1  0
  3 33  1  0
  5 34  1  0
  5 35  1  0
  6 36  1  0
  6 37  1  0
  7 38  1  0
  7 39  1  0
  8 40  1  0
  8 41  1  0
  9 42  1  0
 10 43  1  0
 10 44  1  0
 11 45  1  0
 11 46  1  0
 17 47  1  0
 18 48  1  0
 20 49  1  0
 20 50  1  0
 20 51  1  0
 23 52  1  0
 27 53  1  0
 28 54  1  0
 28 55  1  0
 28 56  1  0
 29 57  1  0
 29 58  1  0
 29 59  1  0
M  END
> <Name>
69 Martínez-Viturro et al., 2020

> <Clean Energy>
155.976486206055

> <Reference>
Martínez-Viturro et al., 2020

> <IC50>
135nM

> <Forcefield>
MMFF

> <ForcefieldBase>
MMFF

> <ForcefieldFFML>
<?xml version="1.0" encoding="UTF-8"?>
<!DOCTYPE ffml SYSTEM "Ffml.dtd">
<ffml version="1.0">
<forcefield name="69 Martínez-Viturro et al., 2020-MMFF" derivedFrom="MMFF" base="MMFF">
<atomTypes>
<atomType
 name="C100"
 element="C"
 mass="12.011"
 annotation=""/>
<atomType
 name="N101"
 element="N"
 mass="14.007"
 annotation=""/>
<atomType
 name="O102"
 element="O"
 mass="16"
 annotation=""/>
<atomType
 name="S103"
 element="S"
 mass="32.066"
 annotation=""/>
<atomType
 name="H104"
 element="H"
 mass="1.008"
 annotation=""/>
</atomTypes>
<parameters>
</parameters>
</forcefield>
</ffml>

$$$$
70 Martínez-Viturro et al., 2020
  SciTegic07212313593D

 56 59  0  0  0  0            999 V2000
   22.4723  -14.0085   -0.5974 C   0  0
   22.0845  -15.2319    0.2702 C   0  0
   23.2057  -16.2526    0.0634 C   0  0
   24.3397  -15.3762   -0.1456 N   0  0
   23.8132  -14.0298    0.2089 C   0  0
   22.3587  -12.3972   -0.4444 C   0  0
   20.9266  -12.3872   -0.6858 C   0  0
   20.9561  -13.7073   -0.0842 C   0  0
   20.1584  -11.3202    0.1244 C   0  0
   18.7466  -11.5964    0.0214 O   0  0
   25.5745  -15.8899    0.5376 C   0  0
   26.8906  -15.1587    0.2257 C   0  0
   28.4484  -15.8589    0.5399 S   0  0
   29.2407  -14.4419   -0.1068 C   0  0
   28.4040  -13.5579   -0.4992 N   0  0
   27.0238  -13.9480   -0.3269 C   0  0
   30.6376  -14.2671   -0.2012 N   0  0
   31.5039  -15.2506    0.0543 C   0  0
   32.9776  -14.9873   -0.0655 C   0  0
   31.1104  -16.3783    0.3696 O   0  0
   17.9669  -10.4194    0.0706 C   0  0
   18.5257   -9.2164    0.1643 C   0  0
   17.6683   -8.0250    0.1843 C   0  0
   16.4003   -8.1396    0.1105 N   0  0
   15.7808   -9.3987    0.0115 C   0  0
   16.5129  -10.5129   -0.0105 C   0  0
   18.2861   -6.6616    0.2817 C   0  0
   14.2842   -9.4875   -0.0724 C   0  0
   22.0173  -14.9479    1.3204 H   0  0
   21.1298  -15.6435   -0.0573 H   0  0
   23.3422  -16.8813    0.9432 H   0  0
   23.0194  -16.8811   -0.8075 H   0  0
   23.6366  -13.9392    1.2807 H   0  0
   24.4880  -13.2383   -0.1169 H   0  0
   22.6312  -12.0379    0.5480 H   0  0
   22.9268  -11.8514   -1.1976 H   0  0
   20.6654  -12.3990   -1.7440 H   0  0
   20.8630  -13.6894    1.0017 H   0  0
   20.2152  -14.3891   -0.5017 H   0  0
   20.4656  -11.3606    1.1694 H   0  0
   20.3696  -10.3299   -0.2790 H   0  0
   25.4079  -15.8258    1.6129 H   0  0
   25.7006  -16.9338    0.2506 H   0  0
   26.1800  -13.3218   -0.6166 H   0  0
   31.0176  -13.3090   -0.4887 H   0  0
   33.5303  -15.8947    0.1777 H   0  0
   33.2626  -14.1931    0.6245 H   0  0
   33.2110  -14.6828   -1.0857 H   0  0
   19.6093   -9.1159    0.2256 H   0  0
   16.0288  -11.4864   -0.0885 H   0  0
   17.5009   -5.9056    0.2832 H   0  0
   18.9449   -6.4988   -0.5713 H   0  0
   18.8620   -6.5883    1.2043 H   0  0
   13.9852  -10.5332   -0.1432 H   0  0
   13.9368   -8.9502   -0.9549 H   0  0
   13.8428   -9.0435    0.8199 H   0  0
  1  2  1  0
  2  3  1  0
  3  4  1  0
  4  5  1  0
  5  1  1  0
  1  6  1  0
  6  7  1  0
  7  8  1  0
  8  1  1  0
  7  9  1  0
 10  9  1  0
  4 11  1  0
 11 12  1  0
 12 13  1  0
 13 14  1  0
 14 15  2  0
 15 16  1  0
 16 12  2  0
 14 17  1  0
 17 18  1  0
 18 19  1  0
 18 20  2  0
 10 21  1  0
 21 22  2  0
 22 23  1  0
 23 24  2  0
 24 25  1  0
 25 26  2  0
 26 21  1  0
 23 27  1  0
 25 28  1  0
  2 29  1  0
  2 30  1  0
  3 31  1  0
  3 32  1  0
  5 33  1  0
  5 34  1  0
  6 35  1  0
  6 36  1  0
  7 37  1  0
  8 38  1  0
  8 39  1  0
  9 40  1  0
  9 41  1  0
 11 42  1  0
 11 43  1  0
 16 44  1  0
 17 45  1  0
 19 46  1  0
 19 47  1  0
 19 48  1  0
 22 49  1  0
 26 50  1  0
 27 51  1  0
 27 52  1  0
 27 53  1  0
 28 54  1  0
 28 55  1  0
 28 56  1  0
M  END
> <Name>
70 Martínez-Viturro et al., 2020

> <Clean Energy>
127.285514831543

> <Reference>
Martínez-Viturro et al., 2020

> <IC50>
316nM

> <Forcefield>
MMFF

> <ForcefieldBase>
MMFF

> <ForcefieldFFML>
<?xml version="1.0" encoding="UTF-8"?>
<!DOCTYPE ffml SYSTEM "Ffml.dtd">
<ffml version="1.0">
<forcefield name="70 Martínez-Viturro et al., 2020-MMFF" derivedFrom="MMFF" base="MMFF">
<atomTypes>
<atomType
 name="C100"
 element="C"
 mass="12.011"
 annotation=""/>
<atomType
 name="N101"
 element="N"
 mass="14.007"
 annotation=""/>
<atomType
 name="O102"
 element="O"
 mass="16"
 annotation=""/>
<atomType
 name="S103"
 element="S"
 mass="32.066"
 annotation=""/>
<atomType
 name="H104"
 element="H"
 mass="1.008"
 annotation=""/>
</atomTypes>
<parameters>
</parameters>
</forcefield>
</ffml>

$$$$
66-cis Martínez-Viturro et al., 2020
  SciTegic07212313593D

 55 58  0  0  0  0            999 V2000
   22.8361  -15.0960   -0.5210 C   0  0
   22.3474  -16.2579    0.3745 C   0  0
   23.5079  -17.2100    0.2848 C   0  0
   24.6364  -16.3313    0.6072 N   0  0
   24.1008  -14.9452    0.3366 C   0  0
   22.5467  -13.5263   -0.8093 C   0  0
   21.1128  -13.6154   -0.7323 C   0  0
   21.3352  -14.8308    0.0549 C   0  0
   20.4315  -12.4019   -0.0254 C   0  0
   18.9108  -12.5345    0.0754 C   0  0
   18.1835  -11.4405    0.3124 C   0  0
   16.7234  -11.5408    0.3530 C   0  0
   16.1417  -12.6577    0.1634 N   0  0
   16.8785  -13.8320   -0.0863 C   0  0
   18.2041  -13.7975   -0.1377 C   0  0
   15.9007  -10.3081    0.5978 C   0  0
   16.1546  -15.1291   -0.3013 C   0  0
   25.7934  -16.7859   -0.2488 C   0  0
   27.1301  -16.0542   -0.0329 C   0  0
   28.6665  -16.7520   -0.4438 S   0  0
   29.4916  -15.3301    0.1495 C   0  0
   28.6766  -14.4427    0.5862 N   0  0
   27.2981  -14.8395    0.4986 C   0  0
   30.8865  -15.1466    0.1776 N   0  0
   31.7403  -16.1377   -0.0976 C   0  0
   33.2173  -15.8684   -0.0380 C   0  0
   31.3362  -17.2667   -0.3729 O   0  0
   22.1809  -15.9279    1.3999 H   0  0
   21.4336  -16.7053   -0.0167 H   0  0
   23.4148  -18.0194    1.0089 H   0  0
   23.6029  -17.6276   -0.7175 H   0  0
   23.8555  -14.4515    1.2770 H   0  0
   24.8456  -14.3571   -0.1996 H   0  0
   22.9686  -12.8740   -0.0447 H   0  0
   22.8956  -13.2084   -1.7918 H   0  0
   20.6627  -13.8311   -1.7014 H   0  0
   21.3175  -14.6507    1.1298 H   0  0
   20.6373  -15.6310   -0.1915 H   0  0
   20.8385  -12.3158    0.9820 H   0  0
   20.6630  -11.4986   -0.5899 H   0  0
   18.6728  -10.4801    0.4744 H   0  0
   18.7660  -14.7097   -0.3387 H   0  0
   14.8428  -10.5702    0.5946 H   0  0
   16.0961   -9.5783   -0.1879 H   0  0
   16.1655   -9.8800    1.5647 H   0  0
   16.8783  -15.9245   -0.4793 H   0  0
   15.4951  -15.0388   -1.1645 H   0  0
   15.5640  -15.3672    0.5834 H   0  0
   25.9583  -17.8446   -0.0489 H   0  0
   25.5068  -16.6529   -1.2920 H   0  0
   26.4717  -14.2121    0.8326 H   0  0
   31.2765  -14.1821    0.4276 H   0  0
   33.7634  -16.7778   -0.2885 H   0  0
   33.4884  -15.5478    0.9679 H   0  0
   33.4731  -15.0838   -0.7503 H   0  0
  2  1  1  0
  2  3  1  0
  3  4  1  0
  4  5  1  0
  5  1  1  0
  1  6  1  0
  6  7  1  0
  7  8  1  0
  8  1  1  0
  7  9  1  0
 10  9  1  0
 10 11  2  0
 11 12  1  0
 12 13  2  0
 13 14  1  0
 14 15  2  0
 15 10  1  0
 12 16  1  0
 14 17  1  0
  4 18  1  0
 18 19  1  0
 19 20  1  0
 20 21  1  0
 21 22  2  0
 22 23  1  0
 23 19  2  0
 21 24  1  0
 24 25  1  0
 25 26  1  0
 25 27  2  0
  2 28  1  0
  2 29  1  0
  3 30  1  0
  3 31  1  0
  5 32  1  0
  5 33  1  0
  6 34  1  0
  6 35  1  0
  7 36  1  0
  8 37  1  0
  8 38  1  0
  9 39  1  0
  9 40  1  0
 11 41  1  0
 15 42  1  0
 16 43  1  0
 16 44  1  0
 16 45  1  0
 17 46  1  0
 17 47  1  0
 17 48  1  0
 18 49  1  0
 18 50  1  0
 23 51  1  0
 24 52  1  0
 26 53  1  0
 26 54  1  0
 26 55  1  0
M  END
> <Name>
66-cis Martínez-Viturro et al., 2020

> <Clean Energy>
126.438430786133

> <Reference>
Martínez-Viturro et al., 2020

> <IC50>
209nM

> <Forcefield>
MMFF

> <ForcefieldBase>
MMFF

> <ForcefieldFFML>
<?xml version="1.0" encoding="UTF-8"?>
<!DOCTYPE ffml SYSTEM "Ffml.dtd">
<ffml version="1.0">
<forcefield name="66-cis Martínez-Viturro et al., 2020-MMFF" derivedFrom="MMFF" base="MMFF">
<atomTypes>
<atomType
 name="C100"
 element="C"
 mass="12.011"
 annotation=""/>
<atomType
 name="N101"
 element="N"
 mass="14.007"
 annotation=""/>
<atomType
 name="S102"
 element="S"
 mass="32.066"
 annotation=""/>
<atomType
 name="O103"
 element="O"
 mass="16"
 annotation=""/>
<atomType
 name="H104"
 element="H"
 mass="1.008"
 annotation=""/>
</atomTypes>
<parameters>
</parameters>
</forcefield>
</ffml>

$$$$
66-trans Martínez-Viturro et al., 2020
  SciTegic07212313593D

 55 58  0  0  0  0            999 V2000
   21.6835  -31.3507   -0.7447 C   0  0
   21.2457  -32.6002    0.0944 C   0  0
   22.4111  -33.5501    0.0276 C   0  0
   23.4930  -32.6913    0.4035 N   0  0
   22.8781  -31.3291    0.2742 C   0  0
   21.5351  -29.7748   -0.4155 C   0  0
   20.1401  -29.8395    0.0337 C   0  0
   20.0907  -31.2003   -0.5221 C   0  0
   19.2454  -28.7423   -0.6323 C   0  0
   17.7383  -28.8415   -0.3524 C   0  0
   16.9975  -27.7451   -0.4511 C   0  0
   15.5578  -27.8133   -0.1850 C   0  0
   15.0107  -28.9205    0.1276 N   0  0
   15.7583  -30.1051    0.2313 C   0  0
   17.0747  -30.0957    0.0132 C   0  0
   14.7239  -26.5696   -0.2731 C   0  0
   15.0734  -31.3903    0.5903 C   0  0
   24.6519  -33.0276   -0.4937 C   0  0
   25.9737  -32.3063   -0.1860 C   0  0
   27.5269  -32.9867   -0.5621 S   0  0
   28.3259  -31.5927    0.1276 C   0  0
   27.4942  -30.7281    0.5688 N   0  0
   26.1148  -31.1169    0.4084 C   0  0
   29.7221  -31.4170    0.2111 N   0  0
   30.5868  -32.3937   -0.0704 C   0  0
   32.0608  -32.1311    0.0446 C   0  0
   30.1916  -33.5163   -0.4016 O   0  0
   21.0441  -32.3151    1.1270 H   0  0
   20.3553  -33.0572   -0.3374 H   0  0
   22.2941  -34.3755    0.7299 H   0  0
   22.5466  -33.9455   -0.9792 H   0  0
   22.5103  -31.0093    1.2491 H   0  0
   23.6347  -30.6276   -0.0773 H   0  0
   22.2147  -29.4435    0.3697 H   0  0
   21.6642  -29.1471   -1.2972 H   0  0
   20.0567  -29.8351    1.1205 H   0  0
   19.6939  -31.9293    0.1844 H   0  0
   19.5286  -31.2539   -1.4544 H   0  0
   19.5876  -27.7710   -0.2752 H   0  0
   19.3889  -28.8047   -1.7110 H   0  0
   17.4580  -26.7971   -0.7292 H   0  0
   17.6527  -31.0151    0.1065 H   0  0
   13.6857  -26.8107   -0.0449 H   0  0
   14.7879  -26.1592   -1.2809 H   0  0
   15.0911  -25.8338    0.4424 H   0  0
   15.8064  -32.1962    0.6239 H   0  0
   14.3155  -31.6202   -0.1587 H   0  0
   14.5998  -31.2897    1.5669 H   0  0
   24.8318  -34.1000   -0.4181 H   0  0
   24.3658  -32.7778   -1.5154 H   0  0
   25.2749  -30.5049    0.7372 H   0  0
   30.1033  -30.4635    0.5119 H   0  0
   32.6128  -33.0326   -0.2210 H   0  0
   32.3009  -31.8472    1.0692 H   0  0
   32.3400  -31.3225   -0.6310 H   0  0
  2  1  1  0
  2  3  1  0
  3  4  1  0
  4  5  1  0
  5  1  1  0
  1  6  1  0
  6  7  1  0
  7  8  1  0
  8  1  1  0
  7  9  1  0
 10  9  1  0
 10 11  2  0
 11 12  1  0
 12 13  2  0
 13 14  1  0
 14 15  2  0
 15 10  1  0
 12 16  1  0
 14 17  1  0
  4 18  1  0
 18 19  1  0
 19 20  1  0
 20 21  1  0
 21 22  2  0
 22 23  1  0
 23 19  2  0
 21 24  1  0
 24 25  1  0
 25 26  1  0
 25 27  2  0
  2 28  1  0
  2 29  1  0
  3 30  1  0
  3 31  1  0
  5 32  1  0
  5 33  1  0
  6 34  1  0
  6 35  1  0
  7 36  1  0
  8 37  1  0
  8 38  1  0
  9 39  1  0
  9 40  1  0
 11 41  1  0
 15 42  1  0
 16 43  1  0
 16 44  1  0
 16 45  1  0
 17 46  1  0
 17 47  1  0
 17 48  1  0
 18 49  1  0
 18 50  1  0
 23 51  1  0
 24 52  1  0
 26 53  1  0
 26 54  1  0
 26 55  1  0
M  END
> <Name>
66-trans Martínez-Viturro et al., 2020

> <Clean Energy>
127.456916809082

> <Reference>
Martínez-Viturro et al., 2020

> <IC50>
204nM

> <Forcefield>
MMFF

> <ForcefieldBase>
MMFF

> <ForcefieldFFML>
<?xml version="1.0" encoding="UTF-8"?>
<!DOCTYPE ffml SYSTEM "Ffml.dtd">
<ffml version="1.0">
<forcefield name="66-trans Martínez-Viturro et al., 2020-MMFF" derivedFrom="MMFF" base="MMFF">
<atomTypes>
<atomType
 name="C100"
 element="C"
 mass="12.011"
 annotation=""/>
<atomType
 name="N101"
 element="N"
 mass="14.007"
 annotation=""/>
<atomType
 name="S102"
 element="S"
 mass="32.066"
 annotation=""/>
<atomType
 name="O103"
 element="O"
 mass="16"
 annotation=""/>
<atomType
 name="H104"
 element="H"
 mass="1.008"
 annotation=""/>
</atomTypes>
<parameters>
</parameters>
</forcefield>
</ffml>

$$$$
67-cis Martínez-Viturro et al., 2020
  SciTegic07212313593D

 54 57  0  0  0  0            999 V2000
   20.1613  -10.4937    0.1495 C   0  0  1  0  0  0
   19.9587  -11.6760   -0.8212 C   0  0
   21.3940  -12.0270   -1.2366 C   0  0
   22.2333  -11.3667   -0.1998 N   0  0
   21.3193  -11.0949    0.9600 C   0  0
   23.4250  -12.1899    0.0951 C   0  0
   20.6315   -9.2041   -0.5865 C   0  0
   19.3220   -8.3745   -0.6823 C   0  0
   18.2426   -9.3934   -0.3378 C   0  0  1  0  0  0
   18.8944  -10.0977    0.7949 O   0  0
   16.9778   -8.7495   -0.0695 O   0  0
   15.8864   -9.6428    0.1027 C   0  0
   14.6753   -9.1564    0.2898 C   0  0
   13.5322  -10.0665    0.4211 C   0  0
   13.7079  -11.3301    0.3494 N   0  0
   14.9818  -11.8864    0.1522 C   0  0
   16.0573  -11.0999    0.0283 C   0  0
   15.1421  -13.3757    0.0739 C   0  0
   12.1526   -9.5168    0.6214 C   0  0
   24.7010  -11.3811    0.1417 C   0  0
   26.2717  -12.1028    0.2003 S   0  0
   27.0213  -10.5287    0.1434 C   0  0
   26.1581   -9.5826    0.0970 N   0  0
   24.7828  -10.0493    0.0865 C   0  0
   28.4167  -10.3052    0.1385 N   0  0
   29.3014  -11.3081    0.1071 C   0  0
   30.7714  -11.0011    0.0969 C   0  0
   28.9282  -12.4854    0.0757 O   0  0
   19.4786  -12.5167   -0.3204 H   0  0
   19.3627  -11.3776   -1.6836 H   0  0
   21.5471  -13.1062   -1.2310 H   0  0
   21.6190  -11.6327   -2.2276 H   0  0
   21.0313  -12.0051    1.4860 H   0  0
   21.7450  -10.3844    1.6685 H   0  0
   23.2836  -12.6725    1.0622 H   0  0
   23.5231  -12.9500   -0.6799 H   0  0
   21.3906   -8.6761   -0.0094 H   0  0
   21.0234   -9.4367   -1.5766 H   0  0
   19.3265   -7.5522    0.0332 H   0  0
   19.1812   -7.9804   -1.6887 H   0  0
   18.1235  -10.0862   -1.1708 H   0  0
   14.5234   -8.0785    0.3469 H   0  0
   17.0453  -11.5339   -0.1255 H   0  0
   16.1928  -13.6209   -0.0806 H   0  0
   14.5532  -13.7618   -0.7581 H   0  0
   14.7969  -13.8282    1.0036 H   0  0
   11.4408  -10.3387    0.6967 H   0  0
   11.8869   -8.8832   -0.2249 H   0  0
   12.1251   -8.9279    1.5383 H   0  0
   23.9172   -9.3886    0.0389 H   0  0
   28.7783   -9.2983    0.1608 H   0  0
   31.3374  -11.9322    0.0706 H   0  0
   31.0327  -10.4430    0.9960 H   0  0
   31.0125  -10.4050   -0.7832 H   0  0
  1  2  1  0
  2  3  1  0
  3  4  1  0
  4  5  1  0
  5  1  1  0
  4  6  1  0
  1  7  1  0
  7  8  1  0
  8  9  1  0
  9 10  1  0
  1 10  1  0
  9 11  1  0
 11 12  1  0
 12 13  2  0
 13 14  1  0
 14 15  2  0
 15 16  1  0
 16 17  2  0
 17 12  1  0
 16 18  1  0
 14 19  1  0
  6 20  1  0
 20 21  1  0
 21 22  1  0
 22 23  2  0
 23 24  1  0
 24 20  2  0
 22 25  1  0
 25 26  1  0
 26 27  1  0
 26 28  2  0
  2 29  1  0
  2 30  1  0
  3 31  1  0
  3 32  1  0
  5 33  1  0
  5 34  1  0
  6 35  1  0
  6 36  1  0
  7 37  1  0
  7 38  1  0
  8 39  1  0
  8 40  1  0
  9 41  1  0
 13 42  1  0
 17 43  1  0
 18 44  1  0
 18 45  1  0
 18 46  1  0
 19 47  1  0
 19 48  1  0
 19 49  1  0
 24 50  1  0
 25 51  1  0
 27 52  1  0
 27 53  1  0
 27 54  1  0
M  END
> <Name>
67-cis Martínez-Viturro et al., 2020

> <Clean Energy>
74.9890747070312

> <Reference>
Martínez-Viturro et al., 2020

> <IC50>
30nM

> <Forcefield>
MMFF

> <ForcefieldBase>
MMFF

> <ForcefieldFFML>
<?xml version="1.0" encoding="UTF-8"?>
<!DOCTYPE ffml SYSTEM "Ffml.dtd">
<ffml version="1.0">
<forcefield name="67-cis Martínez-Viturro et al., 2020-MMFF" derivedFrom="MMFF" base="MMFF">
<atomTypes>
<atomType
 name="C100"
 element="C"
 mass="12.011"
 annotation=""/>
<atomType
 name="N101"
 element="N"
 mass="14.007"
 annotation=""/>
<atomType
 name="O102"
 element="O"
 mass="16"
 annotation=""/>
<atomType
 name="S103"
 element="S"
 mass="32.066"
 annotation=""/>
<atomType
 name="H104"
 element="H"
 mass="1.008"
 annotation=""/>
</atomTypes>
<parameters>
</parameters>
</forcefield>
</ffml>

$$$$
67-trans Martínez-Viturro et al., 2020
  SciTegic07212313593D

 54 57  0  0  0  0            999 V2000
   19.1079  -29.6108   -0.3710 C   0  0  1  0  0  0
   19.4414  -30.7385   -1.3159 C   0  0
   20.9479  -30.4266   -1.5597 C   0  0
   21.4033  -29.8125   -0.2426 N   0  0
   20.2208  -29.8381    0.6318 C   0  0
   22.4931  -30.5868    0.3770 C   0  0
   19.1899  -28.1904   -0.9725 C   0  0
   18.8361  -27.4992    0.3337 C   0  0
   17.5402  -28.2775    0.6560 C   0  0  2  0  0  0
   17.8343  -29.6662    0.2700 O   0  0
   16.4641  -27.7630   -0.1757 O   0  0
   15.2411  -28.5023   -0.0560 C   0  0
   14.1465  -28.0720   -0.6692 C   0  0
   12.8964  -28.8410   -0.5450 C   0  0
   12.8662  -29.9257    0.1253 N   0  0
   14.0076  -30.4184    0.7715 C   0  0
   15.1558  -29.7486    0.7139 C   0  0
   13.9421  -31.7088    1.5335 C   0  0
   11.6439  -28.3449   -1.2034 C   0  0
   23.8234  -29.9419    0.1186 C   0  0
   25.3501  -30.7171    0.3693 S   0  0
   26.1790  -29.2444   -0.0878 C   0  0
   25.3668  -28.3017   -0.3864 N   0  0
   23.9792  -28.6760   -0.2729 C   0  0
   27.5781  -29.0848   -0.1283 N   0  0
   28.4222  -30.0987    0.0715 C   0  0
   29.9015  -29.8491    0.0199 C   0  0
   28.0042  -31.2412    0.2852 O   0  0
   19.2975  -31.7143   -0.8522 H   0  0
   18.8602  -30.6838   -2.2364 H   0  0
   21.5039  -31.3387   -1.7767 H   0  0
   21.0713  -29.7211   -2.3813 H   0  0
   20.1158  -30.8002    1.1333 H   0  0
   20.2568  -29.0421    1.3755 H   0  0
   22.3257  -30.6401    1.4528 H   0  0
   22.4976  -31.5935   -0.0409 H   0  0
   20.1853  -27.9358   -1.3365 H   0  0
   18.4584  -28.0162   -1.7616 H   0  0
   19.6023  -27.6427    1.0956 H   0  0
   18.6528  -26.4333    0.1983 H   0  0
   17.2897  -28.2064    1.7144 H   0  0
   14.1718  -27.1565   -1.2603 H   0  0
   16.0334  -30.1258    1.2389 H   0  0
   14.9195  -31.9273    1.9636 H   0  0
   13.6539  -32.5153    0.8592 H   0  0
   13.2053  -31.6227    2.3321 H   0  0
   10.8280  -29.0394   -1.0033 H   0  0
   11.8027  -28.2720   -2.2793 H   0  0
   11.3891  -27.3620   -0.8068 H   0  0
   23.1501  -28.0004   -0.4833 H   0  0
   27.9793  -28.1129   -0.3269 H   0  0
   30.4345  -30.7819    0.2040 H   0  0
   30.1741  -29.1191    0.7820 H   0  0
   30.1716  -29.4650   -0.9638 H   0  0
  1  2  1  0
  2  3  1  0
  3  4  1  0
  4  5  1  0
  5  1  1  0
  4  6  1  0
  1  7  1  0
  7  8  1  0
  8  9  1  0
  9 10  1  0
  1 10  1  0
  9 11  1  0
 11 12  1  0
 12 13  2  0
 13 14  1  0
 14 15  2  0
 15 16  1  0
 16 17  2  0
 17 12  1  0
 16 18  1  0
 14 19  1  0
  6 20  1  0
 20 21  1  0
 21 22  1  0
 22 23  2  0
 23 24  1  0
 24 20  2  0
 22 25  1  0
 25 26  1  0
 26 27  1  0
 26 28  2  0
  2 29  1  0
  2 30  1  0
  3 31  1  0
  3 32  1  0
  5 33  1  0
  5 34  1  0
  6 35  1  0
  6 36  1  0
  7 37  1  0
  7 38  1  0
  8 39  1  0
  8 40  1  0
  9 41  1  0
 13 42  1  0
 17 43  1  0
 18 44  1  0
 18 45  1  0
 18 46  1  0
 19 47  1  0
 19 48  1  0
 19 49  1  0
 24 50  1  0
 25 51  1  0
 27 52  1  0
 27 53  1  0
 27 54  1  0
M  END
> <Name>
67-trans Martínez-Viturro et al., 2020

> <Clean Energy>
74.1727752685547

> <Reference>
Martínez-Viturro et al., 2020

> <IC50>
209nM

> <Forcefield>
MMFF

> <ForcefieldBase>
MMFF

> <ForcefieldFFML>
<?xml version="1.0" encoding="UTF-8"?>
<!DOCTYPE ffml SYSTEM "Ffml.dtd">
<ffml version="1.0">
<forcefield name="67-trans Martínez-Viturro et al., 2020-MMFF" derivedFrom="MMFF" base="MMFF">
<atomTypes>
<atomType
 name="C100"
 element="C"
 mass="12.011"
 annotation=""/>
<atomType
 name="N101"
 element="N"
 mass="14.007"
 annotation=""/>
<atomType
 name="O102"
 element="O"
 mass="16"
 annotation=""/>
<atomType
 name="S103"
 element="S"
 mass="32.066"
 annotation=""/>
<atomType
 name="H104"
 element="H"
 mass="1.008"
 annotation=""/>
</atomTypes>
<parameters>
</parameters>
</forcefield>
</ffml>

$$$$
68-cis Martínez-Viturro et al., 2020
  SciTegic07212313593D

 53 56  0  0  0  0            999 V2000
   22.4850  -15.2581    0.1542 C   0  0
   22.4776  -16.5428   -0.6291 C   0  0
   23.9285  -16.5482   -1.1343 C   0  0
   24.6976  -15.8052   -0.0666 N   0  0
   23.7118  -15.4682    1.0151 C   0  0
   22.5047  -14.0115   -0.7403 C   0  0
   20.9793  -13.9287   -0.4569 C   0  0
   21.1455  -14.8931    0.7763 C   0  0
   20.4646  -12.5996   -0.1733 O   0  0
   19.0347  -12.5781   -0.0018 C   0  0
   18.4135  -11.4290    0.2398 C   0  0
   16.9453  -11.4148    0.3785 C   0  0
   16.2698  -12.4907    0.2650 N   0  0
   16.8900  -13.7203    0.0084 C   0  0
   18.2102  -13.7915   -0.1261 C   0  0
   16.2324  -10.1226    0.6444 C   0  0
   16.0649  -14.9669   -0.1195 C   0  0
   25.8001  -16.6431    0.4276 C   0  0
   27.1180  -15.9482    0.2617 C   0  0
   28.6455  -16.7435    0.4017 S   0  0
   29.4697  -15.2430    0.0544 C   0  0
   28.6557  -14.2728   -0.1338 N   0  0
   27.2666  -14.6535   -0.0240 C   0  0
   30.8685  -15.0945   -0.0191 N   0  0
   31.7037  -16.1324    0.0747 C   0  0
   33.1838  -15.9004   -0.0121 C   0  0
   31.2761  -17.2825    0.2194 O   0  0
   22.2662  -17.4033    0.0057 H   0  0
   21.7623  -16.5123   -1.4509 H   0  0
   24.2978  -17.5686   -1.2368 H   0  0
   24.0054  -16.0354   -2.0931 H   0  0
   23.5813  -16.2891    1.7202 H   0  0
   23.9915  -14.5645    1.5566 H   0  0
   23.0913  -13.1771   -0.3559 H   0  0
   22.7713  -14.1947   -1.7812 H   0  0
   20.4079  -14.4070   -1.2524 H   0  0
   21.2054  -14.3982    1.7456 H   0  0
   20.4223  -15.7071    0.8275 H   0  0
   18.9838  -10.5049    0.3346 H   0  0
   18.6844  -14.7517   -0.3293 H   0  0
   15.1604  -10.3065    0.7157 H   0  0
   16.4274   -9.4251   -0.1702 H   0  0
   16.5903   -9.6957    1.5813 H   0  0
   16.7181  -15.8168   -0.3173 H   0  0
   15.3587  -14.8530   -0.9419 H   0  0
   15.5179  -15.1378    0.8077 H   0  0
   25.6399  -16.8560    1.4846 H   0  0
   25.8167  -17.5776   -0.1332 H   0  0
   26.4349  -13.9620   -0.1591 H   0  0
   31.2767  -14.1148   -0.1550 H   0  0
   33.7074  -16.8516    0.0834 H   0  0
   33.4951  -15.2327    0.7913 H   0  0
   33.4254  -15.4483   -0.9740 H   0  0
  1  2  1  0
  2  3  1  0
  3  4  1  0
  4  5  1  0
  1  5  1  0
  1  6  1  0
  6  7  1  0
  7  8  1  0
  8  1  1  0
  7  9  1  0
 10  9  1  0
 10 11  2  0
 11 12  1  0
 12 13  2  0
 13 14  1  0
 14 15  2  0
 15 10  1  0
 12 16  1  0
 14 17  1  0
  4 18  1  0
 18 19  1  0
 19 20  1  0
 20 21  1  0
 21 22  2  0
 22 23  1  0
 23 19  2  0
 21 24  1  0
 24 25  1  0
 25 26  1  0
 25 27  2  0
  2 28  1  0
  2 29  1  0
  3 30  1  0
  3 31  1  0
  5 32  1  0
  5 33  1  0
  6 34  1  0
  6 35  1  0
  7 36  1  0
  8 37  1  0
  8 38  1  0
 11 39  1  0
 15 40  1  0
 16 41  1  0
 16 42  1  0
 16 43  1  0
 17 44  1  0
 17 45  1  0
 17 46  1  0
 18 47  1  0
 18 48  1  0
 23 49  1  0
 24 50  1  0
 26 51  1  0
 26 52  1  0
 26 53  1  0
M  END
> <Name>
68-cis Martínez-Viturro et al., 2020

> <Clean Energy>
61.0554695129395

> <Reference>
Martínez-Viturro et al., 2020

> <IC50>
550nM

> <Forcefield>
MMFF

> <ForcefieldBase>
MMFF

> <ForcefieldFFML>
<?xml version="1.0" encoding="UTF-8"?>
<!DOCTYPE ffml SYSTEM "Ffml.dtd">
<ffml version="1.0">
<forcefield name="68-cis Martínez-Viturro et al., 2020-MMFF" derivedFrom="MMFF" base="MMFF">
<atomTypes>
<atomType
 name="C100"
 element="C"
 mass="12.011"
 annotation=""/>
<atomType
 name="N101"
 element="N"
 mass="14.007"
 annotation=""/>
<atomType
 name="O102"
 element="O"
 mass="16"
 annotation=""/>
<atomType
 name="S103"
 element="S"
 mass="32.066"
 annotation=""/>
<atomType
 name="H104"
 element="H"
 mass="1.008"
 annotation=""/>
</atomTypes>
<parameters>
</parameters>
</forcefield>
</ffml>

$$$$
68-trans Martínez-Viturro et al., 2020
  SciTegic07212313593D

 53 56  0  0  0  0            999 V2000
   19.8905  -34.7446   -0.3329 C   0  0
   20.3898  -35.1133   -1.7107 C   0  0
   21.9109  -35.2309   -1.4442 C   0  0
   22.0128  -35.2287    0.0730 N   0  0
   20.6911  -35.6676    0.5584 C   0  0
   20.0946  -33.2713    0.0549 C   0  0
   18.5790  -33.2327    0.4083 C   0  0
   18.3887  -34.6865   -0.1504 C   0  0
   17.8771  -32.1498   -0.2838 O   0  0
   16.4495  -32.1211   -0.1256 C   0  0
   15.7582  -31.1231   -0.6755 C   0  0
   14.2970  -31.0818   -0.5198 C   0  0
   13.6850  -31.9961    0.1218 N   0  0
   14.3789  -33.0672    0.7073 C   0  0
   15.7014  -33.1441    0.6135 C   0  0
   13.5150  -29.9479   -1.1174 C   0  0
   13.6233  -34.1334    1.4436 C   0  0
   23.1516  -36.0267    0.5967 C   0  0
   24.4963  -35.3814    0.2920 C   0  0
   26.0162  -36.1975    0.4439 S   0  0
   26.8556  -34.7456   -0.0616 C   0  0
   26.0544  -33.7784   -0.2985 N   0  0
   24.6723  -34.1138   -0.0972 C   0  0
   28.2501  -34.6224   -0.1990 N   0  0
   29.0863  -35.6386    0.0141 C   0  0
   30.5624  -35.4242   -0.1493 C   0  0
   28.6639  -36.7523    0.3409 O   0  0
   19.9676  -36.0589   -2.0507 H   0  0
   20.1692  -34.3333   -2.4395 H   0  0
   22.3073  -36.1578   -1.8588 H   0  0
   22.4467  -34.3830   -1.8708 H   0  0
   20.4965  -36.7213    0.3587 H   0  0
   20.5421  -35.4647    1.6190 H   0  0
   20.7636  -33.1114    0.9005 H   0  0
   20.3870  -32.6198   -0.7686 H   0  0
   18.4184  -33.1919    1.4856 H   0  0
   17.9908  -35.4012    0.5700 H   0  0
   17.8161  -34.7458   -1.0760 H   0  0
   16.2726  -30.3430   -1.2366 H   0  0
   16.2327  -33.9697    1.0871 H   0  0
   12.4551  -30.0839   -0.9028 H   0  0
   13.6673  -29.9299   -2.1966 H   0  0
   13.8542  -29.0055   -0.6873 H   0  0
   14.3227  -34.8764    1.8266 H   0  0
   12.9185  -34.6143    0.7653 H   0  0
   13.0788  -33.6853    2.2749 H   0  0
   23.0453  -36.1220    1.6773 H   0  0
   23.1259  -37.0160    0.1398 H   0  0
   23.8535  -33.4098   -0.2460 H   0  0
   28.6561  -33.6750   -0.4861 H   0  0
   31.0908  -36.3537    0.0625 H   0  0
   30.8966  -34.6511    0.5426 H   0  0
   30.7737  -35.1118   -1.1721 H   0  0
  1  2  1  0
  2  3  1  0
  3  4  1  0
  4  5  1  0
  1  5  1  0
  1  6  1  0
  6  7  1  0
  7  8  1  0
  8  1  1  0
  7  9  1  0
 10  9  1  0
 10 11  2  0
 11 12  1  0
 12 13  2  0
 13 14  1  0
 14 15  2  0
 15 10  1  0
 12 16  1  0
 14 17  1  0
  4 18  1  0
 18 19  1  0
 19 20  1  0
 20 21  1  0
 21 22  2  0
 22 23  1  0
 23 19  2  0
 21 24  1  0
 24 25  1  0
 25 26  1  0
 25 27  2  0
  2 28  1  0
  2 29  1  0
  3 30  1  0
  3 31  1  0
  5 32  1  0
  5 33  1  0
  6 34  1  0
  6 35  1  0
  7 36  1  0
  8 37  1  0
  8 38  1  0
 11 39  1  0
 15 40  1  0
 16 41  1  0
 16 42  1  0
 16 43  1  0
 17 44  1  0
 17 45  1  0
 17 46  1  0
 18 47  1  0
 18 48  1  0
 23 49  1  0
 24 50  1  0
 26 51  1  0
 26 52  1  0
 26 53  1  0
M  END
> <Name>
68-trans Martínez-Viturro et al., 2020

> <Clean Energy>
50.9688034057617

> <Reference>
Martínez-Viturro et al., 2020

> <IC50>
1000nM

> <Forcefield>
MMFF

> <ForcefieldBase>
MMFF

> <ForcefieldFFML>
<?xml version="1.0" encoding="UTF-8"?>
<!DOCTYPE ffml SYSTEM "Ffml.dtd">
<ffml version="1.0">
<forcefield name="68-trans Martínez-Viturro et al., 2020-MMFF" derivedFrom="MMFF" base="MMFF">
<atomTypes>
<atomType
 name="C100"
 element="C"
 mass="12.011"
 annotation=""/>
<atomType
 name="N101"
 element="N"
 mass="14.007"
 annotation=""/>
<atomType
 name="O102"
 element="O"
 mass="16"
 annotation=""/>
<atomType
 name="S103"
 element="S"
 mass="32.066"
 annotation=""/>
<atomType
 name="H104"
 element="H"
 mass="1.008"
 annotation=""/>
</atomTypes>
<parameters>
</parameters>
</forcefield>
</ffml>

$$$$
C9H14FNO3S
  DSViewer          3D                             0

 29 30  0  0  0  0  0  0  0  0999 V2000
   -2.1215    1.5456    0.2620 C   0  0  2  0  0  0
   -1.4439    0.2824    1.2085 C   0  0  2  0  0  0
    0.1988    0.2583    1.1901 C   0  0  2  0  0  0
    0.7044    1.5391    0.9226 C   0  0
   -1.3496    1.5827   -0.9303 C   0  0  1  0  0  0
    0.2097    2.0313   -0.5469 C   0  0  1  0  0  0
    0.4625    3.5748   -0.3635 C   0  0
    1.8830    3.9103   -0.2259 O   0  0
   -1.7007   -1.2171    0.8144 N   0  0
   -0.7194   -1.8449    0.2301 C   0  0
    0.5936   -0.8615    0.0329 S   0  0
   -1.5003    0.2670   -1.3920 O   0  0
   -2.0465    2.8533    0.8466 O   0  0
   -0.7296   -3.3160   -0.1680 C   0  0
    0.6016   -3.9740   -0.0464 F   0  0
   -3.1858    1.3380    0.0957 H   0  0
   -1.8987    0.5229    2.1781 H   0  0
    0.5403   -0.2052    2.1310 H   0  0
    0.2618    2.1617    1.6947 H   0  0
    1.8052    1.6220    0.9657 H   0  0
   -1.7081    2.2556   -1.7180 H   0  0
    0.8004    1.6780   -1.4074 H   0  0
    0.0896    4.1006   -1.2397 H   0  0
   -0.0892    3.9178    0.5298 H   0  0
    2.3140    3.4979    0.5500 H   0  0
   -1.0296    0.1634   -2.2377 H   0  0
   -2.6180    2.8920    1.6522 H   0  0
   -1.0186   -3.3790   -1.2236 H   0  0
   -1.4844   -3.8642    0.4111 H   0  0
 14 15  1  0  0  0
  1  2  1  0  0  0
  2  3  1  0  0  0
  4  3  1  0  0  0
  1  5  1  0  0  0
  5  6  1  0  0  0
  6  4  1  0  0  0
  6  7  1  0  0  0
  7  8  1  0  0  0
  2  9  1  0  0  0
  9 10  2  0  0  0
 10 11  1  0  0  0
 11  3  1  0  0  0
  5 12  1  0  0  0
  1 13  1  0  0  0
 10 14  1  0  0  0
  1 16  1  0  0  0
  2 17  1  0  0  0
  3 18  1  0  0  0
  4 19  1  0  0  0
  4 20  1  0  0  0
  5 21  1  0  0  0
  6 22  1  0  0  0
  7 23  1  0  0  0
  7 24  1  0  0  0
  8 25  1  0  0  0
 12 26  1  0  0  0
 13 27  1  0  0  0
 14 28  1  0  0  0
 14 29  1  0  0  0
M  END
> <Clean Energy>
131.799

> <Chemical Formula>
C9H14N4O3S

> <Forcefield>
MMFF

> <ForcefieldBase>
MMFF

> <ForcefieldFFML>
<?xml version="1.0" encoding="UTF-8"?>
<!DOCTYPE ffml SYSTEM "Ffml.dtd">
<ffml version="1.0">
<forcefield name="C9H14FNO3S-MMFF" derivedFrom="MMFF" base="MMFF">
<atomTypes>
<atomType
 name="C100"
 element="C"
 mass="12.011"
 annotation=""/>
<atomType
 name="O101"
 element="O"
 mass="16"
 annotation=""/>
<atomType
 name="N102"
 element="N"
 mass="14.007"
 annotation=""/>
<atomType
 name="S103"
 element="S"
 mass="32.066"
 annotation=""/>
<atomType
 name="F104"
 element="F"
 mass="18.998"
 annotation=""/>
<atomType
 name="H105"
 element="H"
 mass="1.008"
 annotation=""/>
</atomTypes>
<parameters>
</parameters>
</forcefield>
</ffml>

> <Reference>
Elbatrawy et al., 2020

$$$$
